<routes>
	<vType accel="1.0" decel="4.5" id="normal_car" length="5.0" minGap="2.5" maxSpeed="42" sigma="0.5" desiredMaxSpeed="36"/>
	<vType accel="1.5" decel="4.0" id="sporty_car" length="5.0" minGap="2.5" maxSpeed="67" sigma="0.6" desiredMaxSpeed="42"/>
	<vType accel="1.0" decel="4.5" id="trailer" length="10.0" minGap="2.5" maxSpeed="30" sigma="0.5" desiredMaxSpeed="30"/>
	<vType accel="1.0" decel="4.5" id="coach" length="15.0" minGap="2.5" maxSpeed="25" sigma="0.3" desiredMaxSpeed="25" />

    <route id="left_to_right" edges="LRE LRL LRS"/>
                  
	<vehicle id="0" type="trailer" depart="8" departSpeed="random" maxDepartSpeed="21" route="left_to_right" departLane="best">
		<param key="has.friction.device" value="true"/>
	</vehicle>
	<vehicle id="1" type="sporty_car" depart="34" departSpeed="random" maxDepartSpeed="29" route="left_to_right" departLane="best">
		<param key="has.friction.device" value="true"/>
	</vehicle>
	<vehicle id="2" type="coach" depart="58" departSpeed="random" maxDepartSpeed="20" route="left_to_right" departLane="best">
		<param key="has.friction.device" value="true"/>
	</vehicle>
	<vehicle id="3" type="trailer" depart="84" departSpeed="random" maxDepartSpeed="23" route="left_to_right" departLane="best">
		<param key="has.friction.device" value="true"/>
	</vehicle>
	<vehicle id="4" type="sporty_car" depart="97" departSpeed="random" maxDepartSpeed="30" route="left_to_right" departLane="best">
		<param key="has.friction.device" value="true"/>
	</vehicle>
	<vehicle id="5" type="coach" depart="111" departSpeed="random" maxDepartSpeed="20" route="left_to_right" departLane="best">
		<param key="has.friction.device" value="true"/>
	</vehicle>
	<vehicle id="6" type="sporty_car" depart="125" departSpeed="random" maxDepartSpeed="29" route="left_to_right" departLane="best">
		<param key="has.friction.device" value="true"/>
	</vehicle>
	<vehicle id="7" type="normal_car" depart="128" departSpeed="random" maxDepartSpeed="25" route="left_to_right" departLane="best">
		<param key="has.friction.device" value="true"/>
	</vehicle>
	<vehicle id="8" type="normal_car" depart="156" departSpeed="random" maxDepartSpeed="26" route="left_to_right" departLane="best">
		<param key="has.friction.device" value="true"/>
	</vehicle>
	<vehicle id="9" type="normal_car" depart="158" departSpeed="random" maxDepartSpeed="25" route="left_to_right" departLane="best">
		<param key="has.friction.device" value="true"/>
	</vehicle>
	<vehicle id="10" type="normal_car" depart="166" departSpeed="random" maxDepartSpeed="25" route="left_to_right" departLane="best">
		<param key="has.friction.device" value="true"/>
	</vehicle>
	<vehicle id="11" type="coach" depart="184" departSpeed="random" maxDepartSpeed="21" route="left_to_right" departLane="best">
		<param key="has.friction.device" value="true"/>
	</vehicle>
	<vehicle id="12" type="trailer" depart="208" departSpeed="random" maxDepartSpeed="24" route="left_to_right" departLane="best">
		<param key="has.friction.device" value="true"/>
	</vehicle>
	<vehicle id="13" type="normal_car" depart="224" departSpeed="random" maxDepartSpeed="25" route="left_to_right" departLane="best">
		<param key="has.friction.device" value="true"/>
	</vehicle>
	<vehicle id="14" type="trailer" depart="245" departSpeed="random" maxDepartSpeed="20" route="left_to_right" departLane="best">
		<param key="has.friction.device" value="true"/>
	</vehicle>
	<vehicle id="15" type="normal_car" depart="267" departSpeed="random" maxDepartSpeed="26" route="left_to_right" departLane="best">
		<param key="has.friction.device" value="true"/>
	</vehicle>
	<vehicle id="16" type="sporty_car" depart="275" departSpeed="random" maxDepartSpeed="29" route="left_to_right" departLane="best">
		<param key="has.friction.device" value="true"/>
	</vehicle>
	<vehicle id="17" type="sporty_car" depart="279" departSpeed="random" maxDepartSpeed="30" route="left_to_right" departLane="best">
		<param key="has.friction.device" value="true"/>
	</vehicle>
	<vehicle id="18" type="coach" depart="304" departSpeed="random" maxDepartSpeed="20" route="left_to_right" departLane="best">
		<param key="has.friction.device" value="true"/>
	</vehicle>
	<vehicle id="19" type="sporty_car" depart="318" departSpeed="random" maxDepartSpeed="30" route="left_to_right" departLane="best">
		<param key="has.friction.device" value="true"/>
	</vehicle>
	<vehicle id="20" type="trailer" depart="346" departSpeed="random" maxDepartSpeed="23" route="left_to_right" departLane="best">
		<param key="has.friction.device" value="true"/>
	</vehicle>
	<vehicle id="21" type="sporty_car" depart="352" departSpeed="random" maxDepartSpeed="28" route="left_to_right" departLane="best">
		<param key="has.friction.device" value="true"/>
	</vehicle>
	<vehicle id="22" type="sporty_car" depart="366" departSpeed="random" maxDepartSpeed="30" route="left_to_right" departLane="best">
		<param key="has.friction.device" value="true"/>
	</vehicle>
	<vehicle id="23" type="normal_car" depart="379" departSpeed="random" maxDepartSpeed="26" route="left_to_right" departLane="best">
		<param key="has.friction.device" value="true"/>
	</vehicle>
	<vehicle id="24" type="sporty_car" depart="391" departSpeed="random" maxDepartSpeed="29" route="left_to_right" departLane="best">
		<param key="has.friction.device" value="true"/>
	</vehicle>
	<vehicle id="25" type="coach" depart="414" departSpeed="random" maxDepartSpeed="20" route="left_to_right" departLane="best">
		<param key="has.friction.device" value="true"/>
	</vehicle>
	<vehicle id="26" type="trailer" depart="440" departSpeed="random" maxDepartSpeed="21" route="left_to_right" departLane="best">
		<param key="has.friction.device" value="true"/>
	</vehicle>
	<vehicle id="27" type="coach" depart="469" departSpeed="random" maxDepartSpeed="22" route="left_to_right" departLane="best">
		<param key="has.friction.device" value="true"/>
	</vehicle>
	<vehicle id="28" type="sporty_car" depart="486" departSpeed="random" maxDepartSpeed="29" route="left_to_right" departLane="best">
		<param key="has.friction.device" value="true"/>
	</vehicle>
	<vehicle id="29" type="normal_car" depart="500" departSpeed="random" maxDepartSpeed="27" route="left_to_right" departLane="best">
		<param key="has.friction.device" value="true"/>
	</vehicle>
	<vehicle id="30" type="sporty_car" depart="524" departSpeed="random" maxDepartSpeed="30" route="left_to_right" departLane="best">
		<param key="has.friction.device" value="true"/>
	</vehicle>
	<vehicle id="31" type="coach" depart="531" departSpeed="random" maxDepartSpeed="23" route="left_to_right" departLane="best">
		<param key="has.friction.device" value="true"/>
	</vehicle>
	<vehicle id="32" type="trailer" depart="535" departSpeed="random" maxDepartSpeed="22" route="left_to_right" departLane="best">
		<param key="has.friction.device" value="true"/>
	</vehicle>
	<vehicle id="33" type="normal_car" depart="556" departSpeed="random" maxDepartSpeed="27" route="left_to_right" departLane="best">
		<param key="has.friction.device" value="true"/>
	</vehicle>
	<vehicle id="34" type="coach" depart="560" departSpeed="random" maxDepartSpeed="21" route="left_to_right" departLane="best">
		<param key="has.friction.device" value="true"/>
	</vehicle>
	<vehicle id="35" type="normal_car" depart="572" departSpeed="random" maxDepartSpeed="25" route="left_to_right" departLane="best">
		<param key="has.friction.device" value="true"/>
	</vehicle>
	<vehicle id="36" type="trailer" depart="579" departSpeed="random" maxDepartSpeed="21" route="left_to_right" departLane="best">
		<param key="has.friction.device" value="true"/>
	</vehicle>
	<vehicle id="37" type="trailer" depart="579" departSpeed="random" maxDepartSpeed="24" route="left_to_right" departLane="best">
		<param key="has.friction.device" value="true"/>
	</vehicle>
	<vehicle id="38" type="normal_car" depart="582" departSpeed="random" maxDepartSpeed="26" route="left_to_right" departLane="best">
		<param key="has.friction.device" value="true"/>
	</vehicle>
	<vehicle id="39" type="sporty_car" depart="605" departSpeed="random" maxDepartSpeed="29" route="left_to_right" departLane="best">
		<param key="has.friction.device" value="true"/>
	</vehicle>
	<vehicle id="40" type="coach" depart="630" departSpeed="random" maxDepartSpeed="24" route="left_to_right" departLane="best">
		<param key="has.friction.device" value="true"/>
	</vehicle>
	<vehicle id="41" type="coach" depart="659" departSpeed="random" maxDepartSpeed="21" route="left_to_right" departLane="best">
		<param key="has.friction.device" value="true"/>
	</vehicle>
	<vehicle id="42" type="coach" depart="674" departSpeed="random" maxDepartSpeed="23" route="left_to_right" departLane="best">
		<param key="has.friction.device" value="true"/>
	</vehicle>
	<vehicle id="43" type="normal_car" depart="681" departSpeed="random" maxDepartSpeed="25" route="left_to_right" departLane="best">
		<param key="has.friction.device" value="true"/>
	</vehicle>
	<vehicle id="44" type="coach" depart="704" departSpeed="random" maxDepartSpeed="20" route="left_to_right" departLane="best">
		<param key="has.friction.device" value="true"/>
	</vehicle>
	<vehicle id="45" type="trailer" depart="728" departSpeed="random" maxDepartSpeed="24" route="left_to_right" departLane="best">
		<param key="has.friction.device" value="true"/>
	</vehicle>
	<vehicle id="46" type="sporty_car" depart="756" departSpeed="random" maxDepartSpeed="30" route="left_to_right" departLane="best">
		<param key="has.friction.device" value="true"/>
	</vehicle>
	<vehicle id="47" type="sporty_car" depart="777" departSpeed="random" maxDepartSpeed="28" route="left_to_right" departLane="best">
		<param key="has.friction.device" value="true"/>
	</vehicle>
	<vehicle id="48" type="trailer" depart="790" departSpeed="random" maxDepartSpeed="25" route="left_to_right" departLane="best">
		<param key="has.friction.device" value="true"/>
	</vehicle>
	<vehicle id="49" type="trailer" depart="815" departSpeed="random" maxDepartSpeed="23" route="left_to_right" departLane="best">
		<param key="has.friction.device" value="true"/>
	</vehicle>
	<vehicle id="50" type="coach" depart="818" departSpeed="random" maxDepartSpeed="21" route="left_to_right" departLane="best">
		<param key="has.friction.device" value="true"/>
	</vehicle>
	<vehicle id="51" type="normal_car" depart="826" departSpeed="random" maxDepartSpeed="26" route="left_to_right" departLane="best">
		<param key="has.friction.device" value="true"/>
	</vehicle>
	<vehicle id="52" type="trailer" depart="846" departSpeed="random" maxDepartSpeed="25" route="left_to_right" departLane="best">
		<param key="has.friction.device" value="true"/>
	</vehicle>
	<vehicle id="53" type="sporty_car" depart="861" departSpeed="random" maxDepartSpeed="28" route="left_to_right" departLane="best">
		<param key="has.friction.device" value="true"/>
	</vehicle>
	<vehicle id="54" type="normal_car" depart="865" departSpeed="random" maxDepartSpeed="27" route="left_to_right" departLane="best">
		<param key="has.friction.device" value="true"/>
	</vehicle>
	<vehicle id="55" type="normal_car" depart="889" departSpeed="random" maxDepartSpeed="26" route="left_to_right" departLane="best">
		<param key="has.friction.device" value="true"/>
	</vehicle>
	<vehicle id="56" type="sporty_car" depart="901" departSpeed="random" maxDepartSpeed="29" route="left_to_right" departLane="best">
		<param key="has.friction.device" value="true"/>
	</vehicle>
	<vehicle id="57" type="trailer" depart="927" departSpeed="random" maxDepartSpeed="23" route="left_to_right" departLane="best">
		<param key="has.friction.device" value="true"/>
	</vehicle>
	<vehicle id="58" type="sporty_car" depart="927" departSpeed="random" maxDepartSpeed="29" route="left_to_right" departLane="best">
		<param key="has.friction.device" value="true"/>
	</vehicle>
	<vehicle id="59" type="trailer" depart="934" departSpeed="random" maxDepartSpeed="22" route="left_to_right" departLane="best">
		<param key="has.friction.device" value="true"/>
	</vehicle>
	<vehicle id="60" type="coach" depart="943" departSpeed="random" maxDepartSpeed="23" route="left_to_right" departLane="best">
		<param key="has.friction.device" value="true"/>
	</vehicle>
	<vehicle id="61" type="coach" depart="945" departSpeed="random" maxDepartSpeed="20" route="left_to_right" departLane="best">
		<param key="has.friction.device" value="true"/>
	</vehicle>
	<vehicle id="62" type="coach" depart="947" departSpeed="random" maxDepartSpeed="20" route="left_to_right" departLane="best">
		<param key="has.friction.device" value="true"/>
	</vehicle>
	<vehicle id="63" type="coach" depart="961" departSpeed="random" maxDepartSpeed="23" route="left_to_right" departLane="best">
		<param key="has.friction.device" value="true"/>
	</vehicle>
	<vehicle id="64" type="sporty_car" depart="990" departSpeed="random" maxDepartSpeed="29" route="left_to_right" departLane="best">
		<param key="has.friction.device" value="true"/>
	</vehicle>
	<vehicle id="65" type="trailer" depart="1015" departSpeed="random" maxDepartSpeed="25" route="left_to_right" departLane="best">
		<param key="has.friction.device" value="true"/>
	</vehicle>
	<vehicle id="66" type="sporty_car" depart="1043" departSpeed="random" maxDepartSpeed="31" route="left_to_right" departLane="best">
		<param key="has.friction.device" value="true"/>
	</vehicle>
	<vehicle id="67" type="normal_car" depart="1045" departSpeed="random" maxDepartSpeed="25" route="left_to_right" departLane="best">
		<param key="has.friction.device" value="true"/>
	</vehicle>
	<vehicle id="68" type="coach" depart="1074" departSpeed="random" maxDepartSpeed="22" route="left_to_right" departLane="best">
		<param key="has.friction.device" value="true"/>
	</vehicle>
	<vehicle id="69" type="normal_car" depart="1080" departSpeed="random" maxDepartSpeed="25" route="left_to_right" departLane="best">
		<param key="has.friction.device" value="true"/>
	</vehicle>
	<vehicle id="70" type="trailer" depart="1103" departSpeed="random" maxDepartSpeed="25" route="left_to_right" departLane="best">
		<param key="has.friction.device" value="true"/>
	</vehicle>
	<vehicle id="71" type="sporty_car" depart="1112" departSpeed="random" maxDepartSpeed="29" route="left_to_right" departLane="best">
		<param key="has.friction.device" value="true"/>
	</vehicle>
	<vehicle id="72" type="coach" depart="1121" departSpeed="random" maxDepartSpeed="21" route="left_to_right" departLane="best">
		<param key="has.friction.device" value="true"/>
	</vehicle>
	<vehicle id="73" type="sporty_car" depart="1142" departSpeed="random" maxDepartSpeed="29" route="left_to_right" departLane="best">
		<param key="has.friction.device" value="true"/>
	</vehicle>
	<vehicle id="74" type="normal_car" depart="1155" departSpeed="random" maxDepartSpeed="26" route="left_to_right" departLane="best">
		<param key="has.friction.device" value="true"/>
	</vehicle>
	<vehicle id="75" type="normal_car" depart="1161" departSpeed="random" maxDepartSpeed="25" route="left_to_right" departLane="best">
		<param key="has.friction.device" value="true"/>
	</vehicle>
	<vehicle id="76" type="coach" depart="1184" departSpeed="random" maxDepartSpeed="20" route="left_to_right" departLane="best">
		<param key="has.friction.device" value="true"/>
	</vehicle>
	<vehicle id="77" type="sporty_car" depart="1188" departSpeed="random" maxDepartSpeed="30" route="left_to_right" departLane="best">
		<param key="has.friction.device" value="true"/>
	</vehicle>
	<vehicle id="78" type="normal_car" depart="1200" departSpeed="random" maxDepartSpeed="25" route="left_to_right" departLane="best">
		<param key="has.friction.device" value="true"/>
	</vehicle>
	<vehicle id="79" type="normal_car" depart="1214" departSpeed="random" maxDepartSpeed="25" route="left_to_right" departLane="best">
		<param key="has.friction.device" value="true"/>
	</vehicle>
	<vehicle id="80" type="coach" depart="1230" departSpeed="random" maxDepartSpeed="22" route="left_to_right" departLane="best">
		<param key="has.friction.device" value="true"/>
	</vehicle>
	<vehicle id="81" type="coach" depart="1250" departSpeed="random" maxDepartSpeed="23" route="left_to_right" departLane="best">
		<param key="has.friction.device" value="true"/>
	</vehicle>
	<vehicle id="82" type="coach" depart="1250" departSpeed="random" maxDepartSpeed="21" route="left_to_right" departLane="best">
		<param key="has.friction.device" value="true"/>
	</vehicle>
	<vehicle id="83" type="trailer" depart="1252" departSpeed="random" maxDepartSpeed="22" route="left_to_right" departLane="best">
		<param key="has.friction.device" value="true"/>
	</vehicle>
	<vehicle id="84" type="coach" depart="1259" departSpeed="random" maxDepartSpeed="23" route="left_to_right" departLane="best">
		<param key="has.friction.device" value="true"/>
	</vehicle>
	<vehicle id="85" type="normal_car" depart="1259" departSpeed="random" maxDepartSpeed="26" route="left_to_right" departLane="best">
		<param key="has.friction.device" value="true"/>
	</vehicle>
	<vehicle id="86" type="sporty_car" depart="1277" departSpeed="random" maxDepartSpeed="29" route="left_to_right" departLane="best">
		<param key="has.friction.device" value="true"/>
	</vehicle>
	<vehicle id="87" type="sporty_car" depart="1301" departSpeed="random" maxDepartSpeed="28" route="left_to_right" departLane="best">
		<param key="has.friction.device" value="true"/>
	</vehicle>
	<vehicle id="88" type="trailer" depart="1308" departSpeed="random" maxDepartSpeed="22" route="left_to_right" departLane="best">
		<param key="has.friction.device" value="true"/>
	</vehicle>
	<vehicle id="89" type="normal_car" depart="1311" departSpeed="random" maxDepartSpeed="25" route="left_to_right" departLane="best">
		<param key="has.friction.device" value="true"/>
	</vehicle>
	<vehicle id="90" type="sporty_car" depart="1326" departSpeed="random" maxDepartSpeed="31" route="left_to_right" departLane="best">
		<param key="has.friction.device" value="true"/>
	</vehicle>
	<vehicle id="91" type="trailer" depart="1329" departSpeed="random" maxDepartSpeed="25" route="left_to_right" departLane="best">
		<param key="has.friction.device" value="true"/>
	</vehicle>
	<vehicle id="92" type="trailer" depart="1337" departSpeed="random" maxDepartSpeed="20" route="left_to_right" departLane="best">
		<param key="has.friction.device" value="true"/>
	</vehicle>
	<vehicle id="93" type="coach" depart="1364" departSpeed="random" maxDepartSpeed="23" route="left_to_right" departLane="best">
		<param key="has.friction.device" value="true"/>
	</vehicle>
	<vehicle id="94" type="coach" depart="1376" departSpeed="random" maxDepartSpeed="21" route="left_to_right" departLane="best">
		<param key="has.friction.device" value="true"/>
	</vehicle>
	<vehicle id="95" type="normal_car" depart="1380" departSpeed="random" maxDepartSpeed="27" route="left_to_right" departLane="best">
		<param key="has.friction.device" value="true"/>
	</vehicle>
	<vehicle id="96" type="trailer" depart="1408" departSpeed="random" maxDepartSpeed="21" route="left_to_right" departLane="best">
		<param key="has.friction.device" value="true"/>
	</vehicle>
	<vehicle id="97" type="normal_car" depart="1423" departSpeed="random" maxDepartSpeed="26" route="left_to_right" departLane="best">
		<param key="has.friction.device" value="true"/>
	</vehicle>
	<vehicle id="98" type="coach" depart="1446" departSpeed="random" maxDepartSpeed="20" route="left_to_right" departLane="best">
		<param key="has.friction.device" value="true"/>
	</vehicle>
	<vehicle id="99" type="sporty_car" depart="1469" departSpeed="random" maxDepartSpeed="30" route="left_to_right" departLane="best">
		<param key="has.friction.device" value="true"/>
	</vehicle>
	<vehicle id="100" type="coach" depart="1471" departSpeed="random" maxDepartSpeed="20" route="left_to_right" departLane="best">
		<param key="has.friction.device" value="true"/>
	</vehicle>
	<vehicle id="101" type="trailer" depart="1476" departSpeed="random" maxDepartSpeed="23" route="left_to_right" departLane="best">
		<param key="has.friction.device" value="true"/>
	</vehicle>
	<vehicle id="102" type="trailer" depart="1478" departSpeed="random" maxDepartSpeed="23" route="left_to_right" departLane="best">
		<param key="has.friction.device" value="true"/>
	</vehicle>
	<vehicle id="103" type="sporty_car" depart="1488" departSpeed="random" maxDepartSpeed="28" route="left_to_right" departLane="best">
		<param key="has.friction.device" value="true"/>
	</vehicle>
	<vehicle id="104" type="normal_car" depart="1490" departSpeed="random" maxDepartSpeed="27" route="left_to_right" departLane="best">
		<param key="has.friction.device" value="true"/>
	</vehicle>
	<vehicle id="105" type="trailer" depart="1502" departSpeed="random" maxDepartSpeed="23" route="left_to_right" departLane="best">
		<param key="has.friction.device" value="true"/>
	</vehicle>
	<vehicle id="106" type="normal_car" depart="1524" departSpeed="random" maxDepartSpeed="27" route="left_to_right" departLane="best">
		<param key="has.friction.device" value="true"/>
	</vehicle>
	<vehicle id="107" type="sporty_car" depart="1536" departSpeed="random" maxDepartSpeed="28" route="left_to_right" departLane="best">
		<param key="has.friction.device" value="true"/>
	</vehicle>
	<vehicle id="108" type="coach" depart="1545" departSpeed="random" maxDepartSpeed="21" route="left_to_right" departLane="best">
		<param key="has.friction.device" value="true"/>
	</vehicle>
	<vehicle id="109" type="coach" depart="1571" departSpeed="random" maxDepartSpeed="20" route="left_to_right" departLane="best">
		<param key="has.friction.device" value="true"/>
	</vehicle>
	<vehicle id="110" type="trailer" depart="1600" departSpeed="random" maxDepartSpeed="23" route="left_to_right" departLane="best">
		<param key="has.friction.device" value="true"/>
	</vehicle>
	<vehicle id="111" type="trailer" depart="1625" departSpeed="random" maxDepartSpeed="25" route="left_to_right" departLane="best">
		<param key="has.friction.device" value="true"/>
	</vehicle>
	<vehicle id="112" type="trailer" depart="1644" departSpeed="random" maxDepartSpeed="23" route="left_to_right" departLane="best">
		<param key="has.friction.device" value="true"/>
	</vehicle>
	<vehicle id="113" type="sporty_car" depart="1665" departSpeed="random" maxDepartSpeed="30" route="left_to_right" departLane="best">
		<param key="has.friction.device" value="true"/>
	</vehicle>
	<vehicle id="114" type="normal_car" depart="1672" departSpeed="random" maxDepartSpeed="27" route="left_to_right" departLane="best">
		<param key="has.friction.device" value="true"/>
	</vehicle>
	<vehicle id="115" type="sporty_car" depart="1687" departSpeed="random" maxDepartSpeed="30" route="left_to_right" departLane="best">
		<param key="has.friction.device" value="true"/>
	</vehicle>
	<vehicle id="116" type="coach" depart="1688" departSpeed="random" maxDepartSpeed="21" route="left_to_right" departLane="best">
		<param key="has.friction.device" value="true"/>
	</vehicle>
	<vehicle id="117" type="trailer" depart="1695" departSpeed="random" maxDepartSpeed="24" route="left_to_right" departLane="best">
		<param key="has.friction.device" value="true"/>
	</vehicle>
	<vehicle id="118" type="coach" depart="1721" departSpeed="random" maxDepartSpeed="21" route="left_to_right" departLane="best">
		<param key="has.friction.device" value="true"/>
	</vehicle>
	<vehicle id="119" type="sporty_car" depart="1728" departSpeed="random" maxDepartSpeed="31" route="left_to_right" departLane="best">
		<param key="has.friction.device" value="true"/>
	</vehicle>
	<vehicle id="120" type="trailer" depart="1733" departSpeed="random" maxDepartSpeed="25" route="left_to_right" departLane="best">
		<param key="has.friction.device" value="true"/>
	</vehicle>
	<vehicle id="121" type="normal_car" depart="1750" departSpeed="random" maxDepartSpeed="27" route="left_to_right" departLane="best">
		<param key="has.friction.device" value="true"/>
	</vehicle>
	<vehicle id="122" type="sporty_car" depart="1762" departSpeed="random" maxDepartSpeed="30" route="left_to_right" departLane="best">
		<param key="has.friction.device" value="true"/>
	</vehicle>
	<vehicle id="123" type="coach" depart="1784" departSpeed="random" maxDepartSpeed="20" route="left_to_right" departLane="best">
		<param key="has.friction.device" value="true"/>
	</vehicle>
	<vehicle id="124" type="sporty_car" depart="1808" departSpeed="random" maxDepartSpeed="29" route="left_to_right" departLane="best">
		<param key="has.friction.device" value="true"/>
	</vehicle>
	<vehicle id="125" type="trailer" depart="1831" departSpeed="random" maxDepartSpeed="20" route="left_to_right" departLane="best">
		<param key="has.friction.device" value="true"/>
	</vehicle>
	<vehicle id="126" type="coach" depart="1857" departSpeed="random" maxDepartSpeed="23" route="left_to_right" departLane="best">
		<param key="has.friction.device" value="true"/>
	</vehicle>
	<vehicle id="127" type="sporty_car" depart="1865" departSpeed="random" maxDepartSpeed="31" route="left_to_right" departLane="best">
		<param key="has.friction.device" value="true"/>
	</vehicle>
	<vehicle id="128" type="sporty_car" depart="1879" departSpeed="random" maxDepartSpeed="30" route="left_to_right" departLane="best">
		<param key="has.friction.device" value="true"/>
	</vehicle>
	<vehicle id="129" type="coach" depart="1889" departSpeed="random" maxDepartSpeed="20" route="left_to_right" departLane="best">
		<param key="has.friction.device" value="true"/>
	</vehicle>
	<vehicle id="130" type="sporty_car" depart="1894" departSpeed="random" maxDepartSpeed="30" route="left_to_right" departLane="best">
		<param key="has.friction.device" value="true"/>
	</vehicle>
	<vehicle id="131" type="sporty_car" depart="1901" departSpeed="random" maxDepartSpeed="29" route="left_to_right" departLane="best">
		<param key="has.friction.device" value="true"/>
	</vehicle>
	<vehicle id="132" type="trailer" depart="1923" departSpeed="random" maxDepartSpeed="23" route="left_to_right" departLane="best">
		<param key="has.friction.device" value="true"/>
	</vehicle>
	<vehicle id="133" type="sporty_car" depart="1936" departSpeed="random" maxDepartSpeed="30" route="left_to_right" departLane="best">
		<param key="has.friction.device" value="true"/>
	</vehicle>
	<vehicle id="134" type="sporty_car" depart="1948" departSpeed="random" maxDepartSpeed="28" route="left_to_right" departLane="best">
		<param key="has.friction.device" value="true"/>
	</vehicle>
	<vehicle id="135" type="coach" depart="1971" departSpeed="random" maxDepartSpeed="20" route="left_to_right" departLane="best">
		<param key="has.friction.device" value="true"/>
	</vehicle>
	<vehicle id="136" type="sporty_car" depart="1978" departSpeed="random" maxDepartSpeed="28" route="left_to_right" departLane="best">
		<param key="has.friction.device" value="true"/>
	</vehicle>
	<vehicle id="137" type="sporty_car" depart="1978" departSpeed="random" maxDepartSpeed="29" route="left_to_right" departLane="best">
		<param key="has.friction.device" value="true"/>
	</vehicle>
	<vehicle id="138" type="sporty_car" depart="1984" departSpeed="random" maxDepartSpeed="30" route="left_to_right" departLane="best">
		<param key="has.friction.device" value="true"/>
	</vehicle>
	<vehicle id="139" type="trailer" depart="2007" departSpeed="random" maxDepartSpeed="20" route="left_to_right" departLane="best">
		<param key="has.friction.device" value="true"/>
	</vehicle>
	<vehicle id="140" type="sporty_car" depart="2007" departSpeed="random" maxDepartSpeed="31" route="left_to_right" departLane="best">
		<param key="has.friction.device" value="true"/>
	</vehicle>
	<vehicle id="141" type="sporty_car" depart="2015" departSpeed="random" maxDepartSpeed="30" route="left_to_right" departLane="best">
		<param key="has.friction.device" value="true"/>
	</vehicle>
	<vehicle id="142" type="trailer" depart="2033" departSpeed="random" maxDepartSpeed="25" route="left_to_right" departLane="best">
		<param key="has.friction.device" value="true"/>
	</vehicle>
	<vehicle id="143" type="normal_car" depart="2051" departSpeed="random" maxDepartSpeed="26" route="left_to_right" departLane="best">
		<param key="has.friction.device" value="true"/>
	</vehicle>
	<vehicle id="144" type="trailer" depart="2068" departSpeed="random" maxDepartSpeed="20" route="left_to_right" departLane="best">
		<param key="has.friction.device" value="true"/>
	</vehicle>
	<vehicle id="145" type="sporty_car" depart="2068" departSpeed="random" maxDepartSpeed="31" route="left_to_right" departLane="best">
		<param key="has.friction.device" value="true"/>
	</vehicle>
	<vehicle id="146" type="trailer" depart="2073" departSpeed="random" maxDepartSpeed="20" route="left_to_right" departLane="best">
		<param key="has.friction.device" value="true"/>
	</vehicle>
	<vehicle id="147" type="coach" depart="2081" departSpeed="random" maxDepartSpeed="20" route="left_to_right" departLane="best">
		<param key="has.friction.device" value="true"/>
	</vehicle>
	<vehicle id="148" type="normal_car" depart="2085" departSpeed="random" maxDepartSpeed="25" route="left_to_right" departLane="best">
		<param key="has.friction.device" value="true"/>
	</vehicle>
	<vehicle id="149" type="sporty_car" depart="2088" departSpeed="random" maxDepartSpeed="31" route="left_to_right" departLane="best">
		<param key="has.friction.device" value="true"/>
	</vehicle>
	<vehicle id="150" type="normal_car" depart="2103" departSpeed="random" maxDepartSpeed="27" route="left_to_right" departLane="best">
		<param key="has.friction.device" value="true"/>
	</vehicle>
	<vehicle id="151" type="normal_car" depart="2112" departSpeed="random" maxDepartSpeed="25" route="left_to_right" departLane="best">
		<param key="has.friction.device" value="true"/>
	</vehicle>
	<vehicle id="152" type="normal_car" depart="2139" departSpeed="random" maxDepartSpeed="26" route="left_to_right" departLane="best">
		<param key="has.friction.device" value="true"/>
	</vehicle>