<routes>
	<vType accel="1.0" decel="4.5" id="normal_car" length="5.0" minGap="2.5" maxSpeed="42" sigma="0.5" desiredMaxSpeed="36"/>
	<vType accel="1.5" decel="4.0" id="sporty_car" length="5.0" minGap="2.5" maxSpeed="67" sigma="0.6" desiredMaxSpeed="42"/>
	<vType accel="1.0" decel="4.5" id="trailer" length="10.0" minGap="2.5" maxSpeed="30" sigma="0.5" desiredMaxSpeed="30"/>
	<vType accel="1.0" decel="4.5" id="coach" length="15.0" minGap="2.5" maxSpeed="25" sigma="0.3" desiredMaxSpeed="25" />

    <route id="left_to_right" edges="LRE LRL LRS"/>
                  
	<vehicle id="0" type="trailer" depart="27" departSpeed="random" maxDepartSpeed="22" route="left_to_right" departLane="best">
		<param key="has.friction.device" value="true"/>
	</vehicle>
	<vehicle id="1" type="coach" depart="37" departSpeed="random" maxDepartSpeed="20" route="left_to_right" departLane="best">
		<param key="has.friction.device" value="true"/>
	</vehicle>
	<vehicle id="2" type="normal_car" depart="52" departSpeed="random" maxDepartSpeed="25" route="left_to_right" departLane="best">
		<param key="has.friction.device" value="true"/>
	</vehicle>
	<vehicle id="3" type="normal_car" depart="62" departSpeed="random" maxDepartSpeed="27" route="left_to_right" departLane="best">
		<param key="has.friction.device" value="true"/>
	</vehicle>
	<vehicle id="4" type="sporty_car" depart="82" departSpeed="random" maxDepartSpeed="30" route="left_to_right" departLane="best">
		<param key="has.friction.device" value="true"/>
	</vehicle>
	<vehicle id="5" type="trailer" depart="97" departSpeed="random" maxDepartSpeed="25" route="left_to_right" departLane="best">
		<param key="has.friction.device" value="true"/>
	</vehicle>
	<vehicle id="6" type="coach" depart="100" departSpeed="random" maxDepartSpeed="20" route="left_to_right" departLane="best">
		<param key="has.friction.device" value="true"/>
	</vehicle>
	<vehicle id="7" type="normal_car" depart="123" departSpeed="random" maxDepartSpeed="25" route="left_to_right" departLane="best">
		<param key="has.friction.device" value="true"/>
	</vehicle>
	<vehicle id="8" type="coach" depart="137" departSpeed="random" maxDepartSpeed="22" route="left_to_right" departLane="best">
		<param key="has.friction.device" value="true"/>
	</vehicle>
	<vehicle id="9" type="coach" depart="161" departSpeed="random" maxDepartSpeed="21" route="left_to_right" departLane="best">
		<param key="has.friction.device" value="true"/>
	</vehicle>
	<vehicle id="10" type="coach" depart="181" departSpeed="random" maxDepartSpeed="21" route="left_to_right" departLane="best">
		<param key="has.friction.device" value="true"/>
	</vehicle>
	<vehicle id="11" type="normal_car" depart="195" departSpeed="random" maxDepartSpeed="26" route="left_to_right" departLane="best">
		<param key="has.friction.device" value="true"/>
	</vehicle>
	<vehicle id="12" type="normal_car" depart="207" departSpeed="random" maxDepartSpeed="27" route="left_to_right" departLane="best">
		<param key="has.friction.device" value="true"/>
	</vehicle>
	<vehicle id="13" type="sporty_car" depart="208" departSpeed="random" maxDepartSpeed="28" route="left_to_right" departLane="best">
		<param key="has.friction.device" value="true"/>
	</vehicle>
	<vehicle id="14" type="trailer" depart="219" departSpeed="random" maxDepartSpeed="25" route="left_to_right" departLane="best">
		<param key="has.friction.device" value="true"/>
	</vehicle>
	<vehicle id="15" type="trailer" depart="238" departSpeed="random" maxDepartSpeed="20" route="left_to_right" departLane="best">
		<param key="has.friction.device" value="true"/>
	</vehicle>
	<vehicle id="16" type="trailer" depart="266" departSpeed="random" maxDepartSpeed="23" route="left_to_right" departLane="best">
		<param key="has.friction.device" value="true"/>
	</vehicle>
	<vehicle id="17" type="sporty_car" depart="279" departSpeed="random" maxDepartSpeed="31" route="left_to_right" departLane="best">
		<param key="has.friction.device" value="true"/>
	</vehicle>
	<vehicle id="18" type="coach" depart="306" departSpeed="random" maxDepartSpeed="20" route="left_to_right" departLane="best">
		<param key="has.friction.device" value="true"/>
	</vehicle>
	<vehicle id="19" type="coach" depart="321" departSpeed="random" maxDepartSpeed="21" route="left_to_right" departLane="best">
		<param key="has.friction.device" value="true"/>
	</vehicle>
	<vehicle id="20" type="sporty_car" depart="335" departSpeed="random" maxDepartSpeed="29" route="left_to_right" departLane="best">
		<param key="has.friction.device" value="true"/>
	</vehicle>
	<vehicle id="21" type="normal_car" depart="336" departSpeed="random" maxDepartSpeed="27" route="left_to_right" departLane="best">
		<param key="has.friction.device" value="true"/>
	</vehicle>
	<vehicle id="22" type="trailer" depart="347" departSpeed="random" maxDepartSpeed="24" route="left_to_right" departLane="best">
		<param key="has.friction.device" value="true"/>
	</vehicle>
	<vehicle id="23" type="normal_car" depart="356" departSpeed="random" maxDepartSpeed="27" route="left_to_right" departLane="best">
		<param key="has.friction.device" value="true"/>
	</vehicle>
	<vehicle id="24" type="trailer" depart="373" departSpeed="random" maxDepartSpeed="23" route="left_to_right" departLane="best">
		<param key="has.friction.device" value="true"/>
	</vehicle>
	<vehicle id="25" type="coach" depart="388" departSpeed="random" maxDepartSpeed="23" route="left_to_right" departLane="best">
		<param key="has.friction.device" value="true"/>
	</vehicle>
	<vehicle id="26" type="trailer" depart="393" departSpeed="random" maxDepartSpeed="22" route="left_to_right" departLane="best">
		<param key="has.friction.device" value="true"/>
	</vehicle>
	<vehicle id="27" type="normal_car" depart="420" departSpeed="random" maxDepartSpeed="26" route="left_to_right" departLane="best">
		<param key="has.friction.device" value="true"/>
	</vehicle>
	<vehicle id="28" type="trailer" depart="444" departSpeed="random" maxDepartSpeed="25" route="left_to_right" departLane="best">
		<param key="has.friction.device" value="true"/>
	</vehicle>
	<vehicle id="29" type="trailer" depart="460" departSpeed="random" maxDepartSpeed="24" route="left_to_right" departLane="best">
		<param key="has.friction.device" value="true"/>
	</vehicle>
	<vehicle id="30" type="trailer" depart="469" departSpeed="random" maxDepartSpeed="23" route="left_to_right" departLane="best">
		<param key="has.friction.device" value="true"/>
	</vehicle>
	<vehicle id="31" type="coach" depart="487" departSpeed="random" maxDepartSpeed="20" route="left_to_right" departLane="best">
		<param key="has.friction.device" value="true"/>
	</vehicle>
	<vehicle id="32" type="normal_car" depart="501" departSpeed="random" maxDepartSpeed="25" route="left_to_right" departLane="best">
		<param key="has.friction.device" value="true"/>
	</vehicle>
	<vehicle id="33" type="trailer" depart="528" departSpeed="random" maxDepartSpeed="24" route="left_to_right" departLane="best">
		<param key="has.friction.device" value="true"/>
	</vehicle>
	<vehicle id="34" type="coach" depart="551" departSpeed="random" maxDepartSpeed="24" route="left_to_right" departLane="best">
		<param key="has.friction.device" value="true"/>
	</vehicle>
	<vehicle id="35" type="trailer" depart="564" departSpeed="random" maxDepartSpeed="22" route="left_to_right" departLane="best">
		<param key="has.friction.device" value="true"/>
	</vehicle>
	<vehicle id="36" type="trailer" depart="588" departSpeed="random" maxDepartSpeed="22" route="left_to_right" departLane="best">
		<param key="has.friction.device" value="true"/>
	</vehicle>
	<vehicle id="37" type="coach" depart="611" departSpeed="random" maxDepartSpeed="21" route="left_to_right" departLane="best">
		<param key="has.friction.device" value="true"/>
	</vehicle>
	<vehicle id="38" type="sporty_car" depart="637" departSpeed="random" maxDepartSpeed="29" route="left_to_right" departLane="best">
		<param key="has.friction.device" value="true"/>
	</vehicle>
	<vehicle id="39" type="sporty_car" depart="654" departSpeed="random" maxDepartSpeed="31" route="left_to_right" departLane="best">
		<param key="has.friction.device" value="true"/>
	</vehicle>
	<vehicle id="40" type="normal_car" depart="665" departSpeed="random" maxDepartSpeed="26" route="left_to_right" departLane="best">
		<param key="has.friction.device" value="true"/>
	</vehicle>
	<vehicle id="41" type="coach" depart="667" departSpeed="random" maxDepartSpeed="22" route="left_to_right" departLane="best">
		<param key="has.friction.device" value="true"/>
	</vehicle>
	<vehicle id="42" type="normal_car" depart="686" departSpeed="random" maxDepartSpeed="27" route="left_to_right" departLane="best">
		<param key="has.friction.device" value="true"/>
	</vehicle>
	<vehicle id="43" type="trailer" depart="705" departSpeed="random" maxDepartSpeed="22" route="left_to_right" departLane="best">
		<param key="has.friction.device" value="true"/>
	</vehicle>
	<vehicle id="44" type="normal_car" depart="708" departSpeed="random" maxDepartSpeed="27" route="left_to_right" departLane="best">
		<param key="has.friction.device" value="true"/>
	</vehicle>
	<vehicle id="45" type="coach" depart="720" departSpeed="random" maxDepartSpeed="24" route="left_to_right" departLane="best">
		<param key="has.friction.device" value="true"/>
	</vehicle>
	<vehicle id="46" type="trailer" depart="743" departSpeed="random" maxDepartSpeed="25" route="left_to_right" departLane="best">
		<param key="has.friction.device" value="true"/>
	</vehicle>
	<vehicle id="47" type="normal_car" depart="766" departSpeed="random" maxDepartSpeed="27" route="left_to_right" departLane="best">
		<param key="has.friction.device" value="true"/>
	</vehicle>
	<vehicle id="48" type="sporty_car" depart="781" departSpeed="random" maxDepartSpeed="30" route="left_to_right" departLane="best">
		<param key="has.friction.device" value="true"/>
	</vehicle>
	<vehicle id="49" type="sporty_car" depart="805" departSpeed="random" maxDepartSpeed="30" route="left_to_right" departLane="best">
		<param key="has.friction.device" value="true"/>
	</vehicle>
	<vehicle id="50" type="coach" depart="825" departSpeed="random" maxDepartSpeed="21" route="left_to_right" departLane="best">
		<param key="has.friction.device" value="true"/>
	</vehicle>
	<vehicle id="51" type="coach" depart="840" departSpeed="random" maxDepartSpeed="24" route="left_to_right" departLane="best">
		<param key="has.friction.device" value="true"/>
	</vehicle>
	<vehicle id="52" type="trailer" depart="853" departSpeed="random" maxDepartSpeed="22" route="left_to_right" departLane="best">
		<param key="has.friction.device" value="true"/>
	</vehicle>
	<vehicle id="53" type="sporty_car" depart="881" departSpeed="random" maxDepartSpeed="28" route="left_to_right" departLane="best">
		<param key="has.friction.device" value="true"/>
	</vehicle>
	<vehicle id="54" type="coach" depart="882" departSpeed="random" maxDepartSpeed="24" route="left_to_right" departLane="best">
		<param key="has.friction.device" value="true"/>
	</vehicle>
	<vehicle id="55" type="coach" depart="882" departSpeed="random" maxDepartSpeed="23" route="left_to_right" departLane="best">
		<param key="has.friction.device" value="true"/>
	</vehicle>
	<vehicle id="56" type="trailer" depart="902" departSpeed="random" maxDepartSpeed="21" route="left_to_right" departLane="best">
		<param key="has.friction.device" value="true"/>
	</vehicle>
	<vehicle id="57" type="normal_car" depart="902" departSpeed="random" maxDepartSpeed="25" route="left_to_right" departLane="best">
		<param key="has.friction.device" value="true"/>
	</vehicle>
	<vehicle id="58" type="sporty_car" depart="929" departSpeed="random" maxDepartSpeed="29" route="left_to_right" departLane="best">
		<param key="has.friction.device" value="true"/>
	</vehicle>
	<vehicle id="59" type="trailer" depart="933" departSpeed="random" maxDepartSpeed="22" route="left_to_right" departLane="best">
		<param key="has.friction.device" value="true"/>
	</vehicle>
	<vehicle id="60" type="trailer" depart="957" departSpeed="random" maxDepartSpeed="25" route="left_to_right" departLane="best">
		<param key="has.friction.device" value="true"/>
	</vehicle>
	<vehicle id="61" type="trailer" depart="984" departSpeed="random" maxDepartSpeed="23" route="left_to_right" departLane="best">
		<param key="has.friction.device" value="true"/>
	</vehicle>
	<vehicle id="62" type="sporty_car" depart="984" departSpeed="random" maxDepartSpeed="30" route="left_to_right" departLane="best">
		<param key="has.friction.device" value="true"/>
	</vehicle>
	<vehicle id="63" type="sporty_car" depart="996" departSpeed="random" maxDepartSpeed="30" route="left_to_right" departLane="best">
		<param key="has.friction.device" value="true"/>
	</vehicle>
	<vehicle id="64" type="coach" depart="1006" departSpeed="random" maxDepartSpeed="21" route="left_to_right" departLane="best">
		<param key="has.friction.device" value="true"/>
	</vehicle>
	<vehicle id="65" type="normal_car" depart="1030" departSpeed="random" maxDepartSpeed="27" route="left_to_right" departLane="best">
		<param key="has.friction.device" value="true"/>
	</vehicle>
	<vehicle id="66" type="normal_car" depart="1058" departSpeed="random" maxDepartSpeed="27" route="left_to_right" departLane="best">
		<param key="has.friction.device" value="true"/>
	</vehicle>
	<vehicle id="67" type="sporty_car" depart="1073" departSpeed="random" maxDepartSpeed="31" route="left_to_right" departLane="best">
		<param key="has.friction.device" value="true"/>
	</vehicle>
	<vehicle id="68" type="sporty_car" depart="1080" departSpeed="random" maxDepartSpeed="29" route="left_to_right" departLane="best">
		<param key="has.friction.device" value="true"/>
	</vehicle>
	<vehicle id="69" type="normal_car" depart="1103" departSpeed="random" maxDepartSpeed="25" route="left_to_right" departLane="best">
		<param key="has.friction.device" value="true"/>
	</vehicle>
	<vehicle id="70" type="trailer" depart="1122" departSpeed="random" maxDepartSpeed="22" route="left_to_right" departLane="best">
		<param key="has.friction.device" value="true"/>
	</vehicle>
	<vehicle id="71" type="normal_car" depart="1135" departSpeed="random" maxDepartSpeed="25" route="left_to_right" departLane="best">
		<param key="has.friction.device" value="true"/>
	</vehicle>
	<vehicle id="72" type="normal_car" depart="1155" departSpeed="random" maxDepartSpeed="27" route="left_to_right" departLane="best">
		<param key="has.friction.device" value="true"/>
	</vehicle>
	<vehicle id="73" type="normal_car" depart="1157" departSpeed="random" maxDepartSpeed="25" route="left_to_right" departLane="best">
		<param key="has.friction.device" value="true"/>
	</vehicle>
	<vehicle id="74" type="coach" depart="1161" departSpeed="random" maxDepartSpeed="22" route="left_to_right" departLane="best">
		<param key="has.friction.device" value="true"/>
	</vehicle>
	<vehicle id="75" type="coach" depart="1164" departSpeed="random" maxDepartSpeed="24" route="left_to_right" departLane="best">
		<param key="has.friction.device" value="true"/>
	</vehicle>
	<vehicle id="76" type="normal_car" depart="1183" departSpeed="random" maxDepartSpeed="27" route="left_to_right" departLane="best">
		<param key="has.friction.device" value="true"/>
	</vehicle>
	<vehicle id="77" type="sporty_car" depart="1183" departSpeed="random" maxDepartSpeed="29" route="left_to_right" departLane="best">
		<param key="has.friction.device" value="true"/>
	</vehicle>
	<vehicle id="78" type="sporty_car" depart="1186" departSpeed="random" maxDepartSpeed="31" route="left_to_right" departLane="best">
		<param key="has.friction.device" value="true"/>
	</vehicle>
	<vehicle id="79" type="normal_car" depart="1192" departSpeed="random" maxDepartSpeed="25" route="left_to_right" departLane="best">
		<param key="has.friction.device" value="true"/>
	</vehicle>
	<vehicle id="80" type="coach" depart="1203" departSpeed="random" maxDepartSpeed="24" route="left_to_right" departLane="best">
		<param key="has.friction.device" value="true"/>
	</vehicle>
	<vehicle id="81" type="coach" depart="1227" departSpeed="random" maxDepartSpeed="20" route="left_to_right" departLane="best">
		<param key="has.friction.device" value="true"/>
	</vehicle>
	<vehicle id="82" type="normal_car" depart="1247" departSpeed="random" maxDepartSpeed="26" route="left_to_right" departLane="best">
		<param key="has.friction.device" value="true"/>
	</vehicle>
	<vehicle id="83" type="normal_car" depart="1258" departSpeed="random" maxDepartSpeed="25" route="left_to_right" departLane="best">
		<param key="has.friction.device" value="true"/>
	</vehicle>
	<vehicle id="84" type="coach" depart="1275" departSpeed="random" maxDepartSpeed="22" route="left_to_right" departLane="best">
		<param key="has.friction.device" value="true"/>
	</vehicle>
	<vehicle id="85" type="trailer" depart="1285" departSpeed="random" maxDepartSpeed="24" route="left_to_right" departLane="best">
		<param key="has.friction.device" value="true"/>
	</vehicle>
	<vehicle id="86" type="sporty_car" depart="1291" departSpeed="random" maxDepartSpeed="31" route="left_to_right" departLane="best">
		<param key="has.friction.device" value="true"/>
	</vehicle>
	<vehicle id="87" type="coach" depart="1310" departSpeed="random" maxDepartSpeed="24" route="left_to_right" departLane="best">
		<param key="has.friction.device" value="true"/>
	</vehicle>
	<vehicle id="88" type="normal_car" depart="1337" departSpeed="random" maxDepartSpeed="26" route="left_to_right" departLane="best">
		<param key="has.friction.device" value="true"/>
	</vehicle>
	<vehicle id="89" type="trailer" depart="1337" departSpeed="random" maxDepartSpeed="25" route="left_to_right" departLane="best">
		<param key="has.friction.device" value="true"/>
	</vehicle>
	<vehicle id="90" type="coach" depart="1360" departSpeed="random" maxDepartSpeed="24" route="left_to_right" departLane="best">
		<param key="has.friction.device" value="true"/>
	</vehicle>
	<vehicle id="91" type="sporty_car" depart="1384" departSpeed="random" maxDepartSpeed="29" route="left_to_right" departLane="best">
		<param key="has.friction.device" value="true"/>
	</vehicle>
	<vehicle id="92" type="normal_car" depart="1404" departSpeed="random" maxDepartSpeed="27" route="left_to_right" departLane="best">
		<param key="has.friction.device" value="true"/>
	</vehicle>
	<vehicle id="93" type="sporty_car" depart="1424" departSpeed="random" maxDepartSpeed="29" route="left_to_right" departLane="best">
		<param key="has.friction.device" value="true"/>
	</vehicle>
	<vehicle id="94" type="trailer" depart="1436" departSpeed="random" maxDepartSpeed="24" route="left_to_right" departLane="best">
		<param key="has.friction.device" value="true"/>
	</vehicle>
	<vehicle id="95" type="trailer" depart="1450" departSpeed="random" maxDepartSpeed="20" route="left_to_right" departLane="best">
		<param key="has.friction.device" value="true"/>
	</vehicle>
	<vehicle id="96" type="normal_car" depart="1450" departSpeed="random" maxDepartSpeed="25" route="left_to_right" departLane="best">
		<param key="has.friction.device" value="true"/>
	</vehicle>
	<vehicle id="97" type="normal_car" depart="1472" departSpeed="random" maxDepartSpeed="27" route="left_to_right" departLane="best">
		<param key="has.friction.device" value="true"/>
	</vehicle>
	<vehicle id="98" type="normal_car" depart="1497" departSpeed="random" maxDepartSpeed="26" route="left_to_right" departLane="best">
		<param key="has.friction.device" value="true"/>
	</vehicle>
	<vehicle id="99" type="coach" depart="1523" departSpeed="random" maxDepartSpeed="21" route="left_to_right" departLane="best">
		<param key="has.friction.device" value="true"/>
	</vehicle>
	<vehicle id="100" type="coach" depart="1552" departSpeed="random" maxDepartSpeed="21" route="left_to_right" departLane="best">
		<param key="has.friction.device" value="true"/>
	</vehicle>
	<vehicle id="101" type="normal_car" depart="1565" departSpeed="random" maxDepartSpeed="27" route="left_to_right" departLane="best">
		<param key="has.friction.device" value="true"/>
	</vehicle>
	<vehicle id="102" type="coach" depart="1574" departSpeed="random" maxDepartSpeed="21" route="left_to_right" departLane="best">
		<param key="has.friction.device" value="true"/>
	</vehicle>
	<vehicle id="103" type="coach" depart="1603" departSpeed="random" maxDepartSpeed="21" route="left_to_right" departLane="best">
		<param key="has.friction.device" value="true"/>
	</vehicle>
	<vehicle id="104" type="coach" depart="1625" departSpeed="random" maxDepartSpeed="22" route="left_to_right" departLane="best">
		<param key="has.friction.device" value="true"/>
	</vehicle>
	<vehicle id="105" type="sporty_car" depart="1628" departSpeed="random" maxDepartSpeed="31" route="left_to_right" departLane="best">
		<param key="has.friction.device" value="true"/>
	</vehicle>
	<vehicle id="106" type="sporty_car" depart="1635" departSpeed="random" maxDepartSpeed="30" route="left_to_right" departLane="best">
		<param key="has.friction.device" value="true"/>
	</vehicle>
	<vehicle id="107" type="normal_car" depart="1660" departSpeed="random" maxDepartSpeed="25" route="left_to_right" departLane="best">
		<param key="has.friction.device" value="true"/>
	</vehicle>
	<vehicle id="108" type="normal_car" depart="1685" departSpeed="random" maxDepartSpeed="27" route="left_to_right" departLane="best">
		<param key="has.friction.device" value="true"/>
	</vehicle>
	<vehicle id="109" type="sporty_car" depart="1688" departSpeed="random" maxDepartSpeed="28" route="left_to_right" departLane="best">
		<param key="has.friction.device" value="true"/>
	</vehicle>
	<vehicle id="110" type="normal_car" depart="1714" departSpeed="random" maxDepartSpeed="25" route="left_to_right" departLane="best">
		<param key="has.friction.device" value="true"/>
	</vehicle>
	<vehicle id="111" type="normal_car" depart="1728" departSpeed="random" maxDepartSpeed="25" route="left_to_right" departLane="best">
		<param key="has.friction.device" value="true"/>
	</vehicle>
	<vehicle id="112" type="trailer" depart="1743" departSpeed="random" maxDepartSpeed="20" route="left_to_right" departLane="best">
		<param key="has.friction.device" value="true"/>
	</vehicle>
	<vehicle id="113" type="coach" depart="1753" departSpeed="random" maxDepartSpeed="20" route="left_to_right" departLane="best">
		<param key="has.friction.device" value="true"/>
	</vehicle>
	<vehicle id="114" type="trailer" depart="1772" departSpeed="random" maxDepartSpeed="25" route="left_to_right" departLane="best">
		<param key="has.friction.device" value="true"/>
	</vehicle>
	<vehicle id="115" type="trailer" depart="1775" departSpeed="random" maxDepartSpeed="22" route="left_to_right" departLane="best">
		<param key="has.friction.device" value="true"/>
	</vehicle>
	<vehicle id="116" type="sporty_car" depart="1790" departSpeed="random" maxDepartSpeed="29" route="left_to_right" departLane="best">
		<param key="has.friction.device" value="true"/>
	</vehicle>
	<vehicle id="117" type="sporty_car" depart="1794" departSpeed="random" maxDepartSpeed="29" route="left_to_right" departLane="best">
		<param key="has.friction.device" value="true"/>
	</vehicle>
	<vehicle id="118" type="sporty_car" depart="1798" departSpeed="random" maxDepartSpeed="29" route="left_to_right" departLane="best">
		<param key="has.friction.device" value="true"/>
	</vehicle>
	<vehicle id="119" type="normal_car" depart="1827" departSpeed="random" maxDepartSpeed="27" route="left_to_right" departLane="best">
		<param key="has.friction.device" value="true"/>
	</vehicle>
	<vehicle id="120" type="coach" depart="1835" departSpeed="random" maxDepartSpeed="20" route="left_to_right" departLane="best">
		<param key="has.friction.device" value="true"/>
	</vehicle>
	<vehicle id="121" type="sporty_car" depart="1841" departSpeed="random" maxDepartSpeed="30" route="left_to_right" departLane="best">
		<param key="has.friction.device" value="true"/>
	</vehicle>
	<vehicle id="122" type="trailer" depart="1863" departSpeed="random" maxDepartSpeed="20" route="left_to_right" departLane="best">
		<param key="has.friction.device" value="true"/>
	</vehicle>
	<vehicle id="123" type="trailer" depart="1863" departSpeed="random" maxDepartSpeed="24" route="left_to_right" departLane="best">
		<param key="has.friction.device" value="true"/>
	</vehicle>
	<vehicle id="124" type="normal_car" depart="1868" departSpeed="random" maxDepartSpeed="25" route="left_to_right" departLane="best">
		<param key="has.friction.device" value="true"/>
	</vehicle>
	<vehicle id="125" type="normal_car" depart="1886" departSpeed="random" maxDepartSpeed="26" route="left_to_right" departLane="best">
		<param key="has.friction.device" value="true"/>
	</vehicle>
	<vehicle id="126" type="normal_car" depart="1889" departSpeed="random" maxDepartSpeed="27" route="left_to_right" departLane="best">
		<param key="has.friction.device" value="true"/>
	</vehicle>
	<vehicle id="127" type="trailer" depart="1904" departSpeed="random" maxDepartSpeed="20" route="left_to_right" departLane="best">
		<param key="has.friction.device" value="true"/>
	</vehicle>
	<vehicle id="128" type="coach" depart="1921" departSpeed="random" maxDepartSpeed="22" route="left_to_right" departLane="best">
		<param key="has.friction.device" value="true"/>
	</vehicle>
	<vehicle id="129" type="coach" depart="1936" departSpeed="random" maxDepartSpeed="21" route="left_to_right" departLane="best">
		<param key="has.friction.device" value="true"/>
	</vehicle>
	<vehicle id="130" type="coach" depart="1938" departSpeed="random" maxDepartSpeed="22" route="left_to_right" departLane="best">
		<param key="has.friction.device" value="true"/>
	</vehicle>
	<vehicle id="131" type="coach" depart="1967" departSpeed="random" maxDepartSpeed="21" route="left_to_right" departLane="best">
		<param key="has.friction.device" value="true"/>
	</vehicle>
	<vehicle id="132" type="trailer" depart="1995" departSpeed="random" maxDepartSpeed="22" route="left_to_right" departLane="best">
		<param key="has.friction.device" value="true"/>
	</vehicle>
	<vehicle id="133" type="trailer" depart="2012" departSpeed="random" maxDepartSpeed="21" route="left_to_right" departLane="best">
		<param key="has.friction.device" value="true"/>
	</vehicle>
	<vehicle id="134" type="sporty_car" depart="2032" departSpeed="random" maxDepartSpeed="29" route="left_to_right" departLane="best">
		<param key="has.friction.device" value="true"/>
	</vehicle>
	<vehicle id="135" type="normal_car" depart="2046" departSpeed="random" maxDepartSpeed="25" route="left_to_right" departLane="best">
		<param key="has.friction.device" value="true"/>
	</vehicle>
	<vehicle id="136" type="coach" depart="2061" departSpeed="random" maxDepartSpeed="22" route="left_to_right" departLane="best">
		<param key="has.friction.device" value="true"/>
	</vehicle>
	<vehicle id="137" type="coach" depart="2066" departSpeed="random" maxDepartSpeed="20" route="left_to_right" departLane="best">
		<param key="has.friction.device" value="true"/>
	</vehicle>
	<vehicle id="138" type="trailer" depart="2084" departSpeed="random" maxDepartSpeed="20" route="left_to_right" departLane="best">
		<param key="has.friction.device" value="true"/>
	</vehicle>
	<vehicle id="139" type="sporty_car" depart="2100" departSpeed="random" maxDepartSpeed="28" route="left_to_right" departLane="best">
		<param key="has.friction.device" value="true"/>
	</vehicle>
	<vehicle id="140" type="coach" depart="2119" departSpeed="random" maxDepartSpeed="20" route="left_to_right" departLane="best">
		<param key="has.friction.device" value="true"/>
	</vehicle>
	<vehicle id="141" type="coach" depart="2128" departSpeed="random" maxDepartSpeed="24" route="left_to_right" departLane="best">
		<param key="has.friction.device" value="true"/>
	</vehicle>
	<vehicle id="142" type="trailer" depart="2128" departSpeed="random" maxDepartSpeed="20" route="left_to_right" departLane="best">
		<param key="has.friction.device" value="true"/>
	</vehicle>
	<vehicle id="143" type="normal_car" depart="2144" departSpeed="random" maxDepartSpeed="27" route="left_to_right" departLane="best">
		<param key="has.friction.device" value="true"/>
	</vehicle>
	<vehicle id="144" type="sporty_car" depart="2160" departSpeed="random" maxDepartSpeed="30" route="left_to_right" departLane="best">
		<param key="has.friction.device" value="true"/>
	</vehicle>
	<vehicle id="145" type="normal_car" depart="2182" departSpeed="random" maxDepartSpeed="25" route="left_to_right" departLane="best">
		<param key="has.friction.device" value="true"/>
	</vehicle>
	<vehicle id="146" type="sporty_car" depart="2203" departSpeed="random" maxDepartSpeed="29" route="left_to_right" departLane="best">
		<param key="has.friction.device" value="true"/>
	</vehicle>
	<vehicle id="147" type="normal_car" depart="2203" departSpeed="random" maxDepartSpeed="25" route="left_to_right" departLane="best">
		<param key="has.friction.device" value="true"/>
	</vehicle>
	<vehicle id="148" type="normal_car" depart="2222" departSpeed="random" maxDepartSpeed="26" route="left_to_right" departLane="best">
		<param key="has.friction.device" value="true"/>
	</vehicle>
	<vehicle id="149" type="trailer" depart="2223" departSpeed="random" maxDepartSpeed="25" route="left_to_right" departLane="best">
		<param key="has.friction.device" value="true"/>
	</vehicle>
	<vehicle id="150" type="trailer" depart="2225" departSpeed="random" maxDepartSpeed="23" route="left_to_right" departLane="best">
		<param key="has.friction.device" value="true"/>
	</vehicle>
	<vehicle id="151" type="sporty_car" depart="2231" departSpeed="random" maxDepartSpeed="28" route="left_to_right" departLane="best">
		<param key="has.friction.device" value="true"/>
	</vehicle>
	<vehicle id="152" type="sporty_car" depart="2256" departSpeed="random" maxDepartSpeed="30" route="left_to_right" departLane="best">
		<param key="has.friction.device" value="true"/>
	</vehicle>