<routes>
	<vType accel="1.0" decel="4.5" id="normal_car_s" length="5.0" minGap="2.5" maxSpeed="42" sigma="0.5" desiredMaxSpeed="36"/>
	<vType accel="1.5" decel="4.0" id="sporty_car_s" length="5.0" minGap="2.5" maxSpeed="67" sigma="0.6" desiredMaxSpeed="42"/>
	<vType accel="1.0" decel="4.5" id="trailer_s" length="10.0" minGap="2.5" maxSpeed="30" sigma="0.5" desiredMaxSpeed="30"/>
	<vType accel="1.0" decel="4.5" id="coach_s" length="15.0" minGap="2.5" maxSpeed="25" sigma="0.3" desiredMaxSpeed="25" />

    <route id="left_to_right" edges="LRE LRL LRS"/>
                  
	<vehicle id="0" type="coach_s" depart="28907" from="R0.E" to="R0.S" departSpeed="random" maxDepartSpeed="20" route="left_to_right" departLane="best">
		<param key="has.friction.device" value="true"/>
	</vehicle>
	<vehicle id="1" type="coach_s" depart="28929" from="R0.E" to="R0.S" departSpeed="random" maxDepartSpeed="20" route="left_to_right" departLane="best">
		<param key="has.friction.device" value="true"/>
	</vehicle>
	<vehicle id="2" type="coach_s" depart="28939" from="R0.E" to="R0.S" departSpeed="random" maxDepartSpeed="21" route="left_to_right" departLane="best">
		<param key="has.friction.device" value="true"/>
	</vehicle>
	<vehicle id="3" type="sporty_car_s" depart="28960" from="R0.E" to="R0.S" departSpeed="random" maxDepartSpeed="29" route="left_to_right" departLane="best">
		<param key="has.friction.device" value="true"/>
	</vehicle>
	<vehicle id="4" type="coach_s" depart="28968" from="R0.E" to="R0.S" departSpeed="random" maxDepartSpeed="20" route="left_to_right" departLane="best">
		<param key="has.friction.device" value="true"/>
	</vehicle>
	<vehicle id="5" type="coach_s" depart="28978" from="R0.E" to="R0.S" departSpeed="random" maxDepartSpeed="22" route="left_to_right" departLane="best">
		<param key="has.friction.device" value="true"/>
	</vehicle>
	<vehicle id="6" type="trailer_s" depart="29001" from="R0.E" to="R0.S" departSpeed="random" maxDepartSpeed="25" route="left_to_right" departLane="best">
		<param key="has.friction.device" value="true"/>
	</vehicle>
	<vehicle id="7" type="sporty_car_s" depart="29006" from="R0.E" to="R0.S" departSpeed="random" maxDepartSpeed="28" route="left_to_right" departLane="best">
		<param key="has.friction.device" value="true"/>
	</vehicle>
	<vehicle id="8" type="coach_s" depart="29008" from="R0.E" to="R0.S" departSpeed="random" maxDepartSpeed="20" route="left_to_right" departLane="best">
		<param key="has.friction.device" value="true"/>
	</vehicle>
	<vehicle id="9" type="sporty_car_s" depart="29021" from="R0.E" to="R0.S" departSpeed="random" maxDepartSpeed="31" route="left_to_right" departLane="best">
		<param key="has.friction.device" value="true"/>
	</vehicle>
	<vehicle id="10" type="sporty_car_s" depart="29036" from="R0.E" to="R0.S" departSpeed="random" maxDepartSpeed="28" route="left_to_right" departLane="best">
		<param key="has.friction.device" value="true"/>
	</vehicle>
	<vehicle id="11" type="trailer_s" depart="29045" from="R0.E" to="R0.S" departSpeed="random" maxDepartSpeed="20" route="left_to_right" departLane="best">
		<param key="has.friction.device" value="true"/>
	</vehicle>
	<vehicle id="12" type="coach_s" depart="29066" from="R0.E" to="R0.S" departSpeed="random" maxDepartSpeed="22" route="left_to_right" departLane="best">
		<param key="has.friction.device" value="true"/>
	</vehicle>
	<vehicle id="13" type="sporty_car_s" depart="29092" from="R0.E" to="R0.S" departSpeed="random" maxDepartSpeed="29" route="left_to_right" departLane="best">
		<param key="has.friction.device" value="true"/>
	</vehicle>
	<vehicle id="14" type="trailer_s" depart="29110" from="R0.E" to="R0.S" departSpeed="random" maxDepartSpeed="24" route="left_to_right" departLane="best">
		<param key="has.friction.device" value="true"/>
	</vehicle>
	<vehicle id="15" type="normal_car_s" depart="29132" from="R0.E" to="R0.S" departSpeed="random" maxDepartSpeed="25" route="left_to_right" departLane="best">
		<param key="has.friction.device" value="true"/>
	</vehicle>
	<vehicle id="16" type="trailer_s" depart="29144" from="R0.E" to="R0.S" departSpeed="random" maxDepartSpeed="21" route="left_to_right" departLane="best">
		<param key="has.friction.device" value="true"/>
	</vehicle>
	<vehicle id="17" type="trailer_s" depart="29147" from="R0.E" to="R0.S" departSpeed="random" maxDepartSpeed="24" route="left_to_right" departLane="best">
		<param key="has.friction.device" value="true"/>
	</vehicle>
	<vehicle id="18" type="normal_car_s" depart="29149" from="R0.E" to="R0.S" departSpeed="random" maxDepartSpeed="26" route="left_to_right" departLane="best">
		<param key="has.friction.device" value="true"/>
	</vehicle>
	<vehicle id="19" type="coach_s" depart="29159" from="R0.E" to="R0.S" departSpeed="random" maxDepartSpeed="21" route="left_to_right" departLane="best">
		<param key="has.friction.device" value="true"/>
	</vehicle>
	<vehicle id="20" type="sporty_car_s" depart="29177" from="R0.E" to="R0.S" departSpeed="random" maxDepartSpeed="28" route="left_to_right" departLane="best">
		<param key="has.friction.device" value="true"/>
	</vehicle>
	<vehicle id="21" type="trailer_s" depart="29195" from="R0.E" to="R0.S" departSpeed="random" maxDepartSpeed="22" route="left_to_right" departLane="best">
		<param key="has.friction.device" value="true"/>
	</vehicle>
	<vehicle id="22" type="normal_car_s" depart="29223" from="R0.E" to="R0.S" departSpeed="random" maxDepartSpeed="26" route="left_to_right" departLane="best">
		<param key="has.friction.device" value="true"/>
	</vehicle>
	<vehicle id="23" type="sporty_car_s" depart="29239" from="R0.E" to="R0.S" departSpeed="random" maxDepartSpeed="28" route="left_to_right" departLane="best">
		<param key="has.friction.device" value="true"/>
	</vehicle>
	<vehicle id="24" type="coach_s" depart="29242" from="R0.E" to="R0.S" departSpeed="random" maxDepartSpeed="22" route="left_to_right" departLane="best">
		<param key="has.friction.device" value="true"/>
	</vehicle>
	<vehicle id="25" type="normal_car_s" depart="29253" from="R0.E" to="R0.S" departSpeed="random" maxDepartSpeed="27" route="left_to_right" departLane="best">
		<param key="has.friction.device" value="true"/>
	</vehicle>
	<vehicle id="26" type="normal_car_s" depart="29277" from="R0.E" to="R0.S" departSpeed="random" maxDepartSpeed="27" route="left_to_right" departLane="best">
		<param key="has.friction.device" value="true"/>
	</vehicle>
	<vehicle id="27" type="normal_car_s" depart="29279" from="R0.E" to="R0.S" departSpeed="random" maxDepartSpeed="27" route="left_to_right" departLane="best">
		<param key="has.friction.device" value="true"/>
	</vehicle>
	<vehicle id="28" type="sporty_car_s" depart="29291" from="R0.E" to="R0.S" departSpeed="random" maxDepartSpeed="31" route="left_to_right" departLane="best">
		<param key="has.friction.device" value="true"/>
	</vehicle>
	<vehicle id="29" type="trailer_s" depart="29303" from="R0.E" to="R0.S" departSpeed="random" maxDepartSpeed="25" route="left_to_right" departLane="best">
		<param key="has.friction.device" value="true"/>
	</vehicle>
	<vehicle id="30" type="sporty_car_s" depart="29305" from="R0.E" to="R0.S" departSpeed="random" maxDepartSpeed="30" route="left_to_right" departLane="best">
		<param key="has.friction.device" value="true"/>
	</vehicle>
	<vehicle id="31" type="coach_s" depart="29308" from="R0.E" to="R0.S" departSpeed="random" maxDepartSpeed="23" route="left_to_right" departLane="best">
		<param key="has.friction.device" value="true"/>
	</vehicle>
	<vehicle id="32" type="normal_car_s" depart="29312" from="R0.E" to="R0.S" departSpeed="random" maxDepartSpeed="25" route="left_to_right" departLane="best">
		<param key="has.friction.device" value="true"/>
	</vehicle>
	<vehicle id="33" type="coach_s" depart="29334" from="R0.E" to="R0.S" departSpeed="random" maxDepartSpeed="23" route="left_to_right" departLane="best">
		<param key="has.friction.device" value="true"/>
	</vehicle>
	<vehicle id="34" type="sporty_car_s" depart="29355" from="R0.E" to="R0.S" departSpeed="random" maxDepartSpeed="28" route="left_to_right" departLane="best">
		<param key="has.friction.device" value="true"/>
	</vehicle>
	<vehicle id="35" type="normal_car_s" depart="29374" from="R0.E" to="R0.S" departSpeed="random" maxDepartSpeed="27" route="left_to_right" departLane="best">
		<param key="has.friction.device" value="true"/>
	</vehicle>
	<vehicle id="36" type="coach_s" depart="29402" from="R0.E" to="R0.S" departSpeed="random" maxDepartSpeed="24" route="left_to_right" departLane="best">
		<param key="has.friction.device" value="true"/>
	</vehicle>
	<vehicle id="37" type="sporty_car_s" depart="29431" from="R0.E" to="R0.S" departSpeed="random" maxDepartSpeed="29" route="left_to_right" departLane="best">
		<param key="has.friction.device" value="true"/>
	</vehicle>
	<vehicle id="38" type="trailer_s" depart="29434" from="R0.E" to="R0.S" departSpeed="random" maxDepartSpeed="22" route="left_to_right" departLane="best">
		<param key="has.friction.device" value="true"/>
	</vehicle>
	<vehicle id="39" type="trailer_s" depart="29441" from="R0.E" to="R0.S" departSpeed="random" maxDepartSpeed="21" route="left_to_right" departLane="best">
		<param key="has.friction.device" value="true"/>
	</vehicle>
	<vehicle id="40" type="sporty_car_s" depart="29469" from="R0.E" to="R0.S" departSpeed="random" maxDepartSpeed="31" route="left_to_right" departLane="best">
		<param key="has.friction.device" value="true"/>
	</vehicle>
	<vehicle id="41" type="sporty_car_s" depart="29479" from="R0.E" to="R0.S" departSpeed="random" maxDepartSpeed="31" route="left_to_right" departLane="best">
		<param key="has.friction.device" value="true"/>
	</vehicle>
	<vehicle id="42" type="trailer_s" depart="29480" from="R0.E" to="R0.S" departSpeed="random" maxDepartSpeed="25" route="left_to_right" departLane="best">
		<param key="has.friction.device" value="true"/>
	</vehicle>
	<vehicle id="43" type="trailer_s" depart="29500" from="R0.E" to="R0.S" departSpeed="random" maxDepartSpeed="23" route="left_to_right" departLane="best">
		<param key="has.friction.device" value="true"/>
	</vehicle>
	<vehicle id="44" type="trailer_s" depart="29508" from="R0.E" to="R0.S" departSpeed="random" maxDepartSpeed="23" route="left_to_right" departLane="best">
		<param key="has.friction.device" value="true"/>
	</vehicle>
	<vehicle id="45" type="trailer_s" depart="29537" from="R0.E" to="R0.S" departSpeed="random" maxDepartSpeed="22" route="left_to_right" departLane="best">
		<param key="has.friction.device" value="true"/>
	</vehicle>
	<vehicle id="46" type="trailer_s" depart="29565" from="R0.E" to="R0.S" departSpeed="random" maxDepartSpeed="21" route="left_to_right" departLane="best">
		<param key="has.friction.device" value="true"/>
	</vehicle>
	<vehicle id="47" type="trailer_s" depart="29581" from="R0.E" to="R0.S" departSpeed="random" maxDepartSpeed="25" route="left_to_right" departLane="best">
		<param key="has.friction.device" value="true"/>
	</vehicle>
	<vehicle id="48" type="trailer_s" depart="29603" from="R0.E" to="R0.S" departSpeed="random" maxDepartSpeed="25" route="left_to_right" departLane="best">
		<param key="has.friction.device" value="true"/>
	</vehicle>
	<vehicle id="49" type="coach_s" depart="29613" from="R0.E" to="R0.S" departSpeed="random" maxDepartSpeed="24" route="left_to_right" departLane="best">
		<param key="has.friction.device" value="true"/>
	</vehicle>
	<vehicle id="50" type="coach_s" depart="29631" from="R0.E" to="R0.S" departSpeed="random" maxDepartSpeed="20" route="left_to_right" departLane="best">
		<param key="has.friction.device" value="true"/>
	</vehicle>
	<vehicle id="51" type="normal_car_s" depart="29641" from="R0.E" to="R0.S" departSpeed="random" maxDepartSpeed="26" route="left_to_right" departLane="best">
		<param key="has.friction.device" value="true"/>
	</vehicle>
	<vehicle id="52" type="sporty_car_s" depart="29644" from="R0.E" to="R0.S" departSpeed="random" maxDepartSpeed="29" route="left_to_right" departLane="best">
		<param key="has.friction.device" value="true"/>
	</vehicle>
	<vehicle id="53" type="trailer_s" depart="29654" from="R0.E" to="R0.S" departSpeed="random" maxDepartSpeed="20" route="left_to_right" departLane="best">
		<param key="has.friction.device" value="true"/>
	</vehicle>
	<vehicle id="54" type="sporty_car_s" depart="29667" from="R0.E" to="R0.S" departSpeed="random" maxDepartSpeed="28" route="left_to_right" departLane="best">
		<param key="has.friction.device" value="true"/>
	</vehicle>
	<vehicle id="55" type="normal_car_s" depart="29671" from="R0.E" to="R0.S" departSpeed="random" maxDepartSpeed="26" route="left_to_right" departLane="best">
		<param key="has.friction.device" value="true"/>
	</vehicle>
	<vehicle id="56" type="normal_car_s" depart="29674" from="R0.E" to="R0.S" departSpeed="random" maxDepartSpeed="26" route="left_to_right" departLane="best">
		<param key="has.friction.device" value="true"/>
	</vehicle>
	<vehicle id="57" type="sporty_car_s" depart="29684" from="R0.E" to="R0.S" departSpeed="random" maxDepartSpeed="28" route="left_to_right" departLane="best">
		<param key="has.friction.device" value="true"/>
	</vehicle>
	<vehicle id="58" type="sporty_car_s" depart="29700" from="R0.E" to="R0.S" departSpeed="random" maxDepartSpeed="28" route="left_to_right" departLane="best">
		<param key="has.friction.device" value="true"/>
	</vehicle>
	<vehicle id="59" type="coach_s" depart="29707" from="R0.E" to="R0.S" departSpeed="random" maxDepartSpeed="22" route="left_to_right" departLane="best">
		<param key="has.friction.device" value="true"/>
	</vehicle>
	<vehicle id="60" type="sporty_car_s" depart="29730" from="R0.E" to="R0.S" departSpeed="random" maxDepartSpeed="29" route="left_to_right" departLane="best">
		<param key="has.friction.device" value="true"/>
	</vehicle>
	<vehicle id="61" type="coach_s" depart="29754" from="R0.E" to="R0.S" departSpeed="random" maxDepartSpeed="23" route="left_to_right" departLane="best">
		<param key="has.friction.device" value="true"/>
	</vehicle>
	<vehicle id="62" type="coach_s" depart="29769" from="R0.E" to="R0.S" departSpeed="random" maxDepartSpeed="21" route="left_to_right" departLane="best">
		<param key="has.friction.device" value="true"/>
	</vehicle>
	<vehicle id="63" type="normal_car_s" depart="29774" from="R0.E" to="R0.S" departSpeed="random" maxDepartSpeed="27" route="left_to_right" departLane="best">
		<param key="has.friction.device" value="true"/>
	</vehicle>
	<vehicle id="64" type="sporty_car_s" depart="29786" from="R0.E" to="R0.S" departSpeed="random" maxDepartSpeed="30" route="left_to_right" departLane="best">
		<param key="has.friction.device" value="true"/>
	</vehicle>
	<vehicle id="65" type="trailer_s" depart="29809" from="R0.E" to="R0.S" departSpeed="random" maxDepartSpeed="20" route="left_to_right" departLane="best">
		<param key="has.friction.device" value="true"/>
	</vehicle>
	<vehicle id="66" type="trailer_s" depart="29823" from="R0.E" to="R0.S" departSpeed="random" maxDepartSpeed="25" route="left_to_right" departLane="best">
		<param key="has.friction.device" value="true"/>
	</vehicle>
	<vehicle id="67" type="sporty_car_s" depart="29849" from="R0.E" to="R0.S" departSpeed="random" maxDepartSpeed="31" route="left_to_right" departLane="best">
		<param key="has.friction.device" value="true"/>
	</vehicle>
	<vehicle id="68" type="normal_car_s" depart="29849" from="R0.E" to="R0.S" departSpeed="random" maxDepartSpeed="27" route="left_to_right" departLane="best">
		<param key="has.friction.device" value="true"/>
	</vehicle>
	<vehicle id="69" type="trailer_s" depart="29859" from="R0.E" to="R0.S" departSpeed="random" maxDepartSpeed="25" route="left_to_right" departLane="best">
		<param key="has.friction.device" value="true"/>
	</vehicle>
	<vehicle id="70" type="sporty_car_s" depart="29862" from="R0.E" to="R0.S" departSpeed="random" maxDepartSpeed="29" route="left_to_right" departLane="best">
		<param key="has.friction.device" value="true"/>
	</vehicle>
	<vehicle id="71" type="sporty_car_s" depart="29875" from="R0.E" to="R0.S" departSpeed="random" maxDepartSpeed="28" route="left_to_right" departLane="best">
		<param key="has.friction.device" value="true"/>
	</vehicle>
	<vehicle id="72" type="trailer_s" depart="29887" from="R0.E" to="R0.S" departSpeed="random" maxDepartSpeed="20" route="left_to_right" departLane="best">
		<param key="has.friction.device" value="true"/>
	</vehicle>
	<vehicle id="73" type="sporty_car_s" depart="29890" from="R0.E" to="R0.S" departSpeed="random" maxDepartSpeed="29" route="left_to_right" departLane="best">
		<param key="has.friction.device" value="true"/>
	</vehicle>
	<vehicle id="74" type="trailer_s" depart="29893" from="R0.E" to="R0.S" departSpeed="random" maxDepartSpeed="22" route="left_to_right" departLane="best">
		<param key="has.friction.device" value="true"/>
	</vehicle>
	<vehicle id="75" type="normal_car_s" depart="29894" from="R0.E" to="R0.S" departSpeed="random" maxDepartSpeed="25" route="left_to_right" departLane="best">
		<param key="has.friction.device" value="true"/>
	</vehicle>
	<vehicle id="76" type="trailer_s" depart="29907" from="R0.E" to="R0.S" departSpeed="random" maxDepartSpeed="24" route="left_to_right" departLane="best">
		<param key="has.friction.device" value="true"/>
	</vehicle>
	<vehicle id="77" type="trailer_s" depart="29925" from="R0.E" to="R0.S" departSpeed="random" maxDepartSpeed="21" route="left_to_right" departLane="best">
		<param key="has.friction.device" value="true"/>
	</vehicle>
	<vehicle id="78" type="trailer_s" depart="29936" from="R0.E" to="R0.S" departSpeed="random" maxDepartSpeed="24" route="left_to_right" departLane="best">
		<param key="has.friction.device" value="true"/>
	</vehicle>
	<vehicle id="79" type="normal_car_s" depart="29939" from="R0.E" to="R0.S" departSpeed="random" maxDepartSpeed="26" route="left_to_right" departLane="best">
		<param key="has.friction.device" value="true"/>
	</vehicle>
	<vehicle id="80" type="trailer_s" depart="29941" from="R0.E" to="R0.S" departSpeed="random" maxDepartSpeed="24" route="left_to_right" departLane="best">
		<param key="has.friction.device" value="true"/>
	</vehicle>
	<vehicle id="81" type="normal_car_s" depart="29954" from="R0.E" to="R0.S" departSpeed="random" maxDepartSpeed="26" route="left_to_right" departLane="best">
		<param key="has.friction.device" value="true"/>
	</vehicle>
	<vehicle id="82" type="trailer_s" depart="29967" from="R0.E" to="R0.S" departSpeed="random" maxDepartSpeed="22" route="left_to_right" departLane="best">
		<param key="has.friction.device" value="true"/>
	</vehicle>
	<vehicle id="83" type="normal_car_s" depart="29975" from="R0.E" to="R0.S" departSpeed="random" maxDepartSpeed="27" route="left_to_right" departLane="best">
		<param key="has.friction.device" value="true"/>
	</vehicle>
	<vehicle id="84" type="trailer_s" depart="29997" from="R0.E" to="R0.S" departSpeed="random" maxDepartSpeed="20" route="left_to_right" departLane="best">
		<param key="has.friction.device" value="true"/>
	</vehicle>
	<vehicle id="85" type="coach_s" depart="30021" from="R0.E" to="R0.S" departSpeed="random" maxDepartSpeed="23" route="left_to_right" departLane="best">
		<param key="has.friction.device" value="true"/>
	</vehicle>
	<vehicle id="86" type="normal_car_s" depart="30023" from="R0.E" to="R0.S" departSpeed="random" maxDepartSpeed="25" route="left_to_right" departLane="best">
		<param key="has.friction.device" value="true"/>
	</vehicle>
	<vehicle id="87" type="sporty_car_s" depart="30028" from="R0.E" to="R0.S" departSpeed="random" maxDepartSpeed="29" route="left_to_right" departLane="best">
		<param key="has.friction.device" value="true"/>
	</vehicle>
	<vehicle id="88" type="normal_car_s" depart="30053" from="R0.E" to="R0.S" departSpeed="random" maxDepartSpeed="27" route="left_to_right" departLane="best">
		<param key="has.friction.device" value="true"/>
	</vehicle>
	<vehicle id="89" type="coach_s" depart="30057" from="R0.E" to="R0.S" departSpeed="random" maxDepartSpeed="21" route="left_to_right" departLane="best">
		<param key="has.friction.device" value="true"/>
	</vehicle>
	<vehicle id="90" type="normal_car_s" depart="30058" from="R0.E" to="R0.S" departSpeed="random" maxDepartSpeed="26" route="left_to_right" departLane="best">
		<param key="has.friction.device" value="true"/>
	</vehicle>
	<vehicle id="91" type="sporty_car_s" depart="30069" from="R0.E" to="R0.S" departSpeed="random" maxDepartSpeed="29" route="left_to_right" departLane="best">
		<param key="has.friction.device" value="true"/>
	</vehicle>
	<vehicle id="92" type="sporty_car_s" depart="30096" from="R0.E" to="R0.S" departSpeed="random" maxDepartSpeed="28" route="left_to_right" departLane="best">
		<param key="has.friction.device" value="true"/>
	</vehicle>
	<vehicle id="93" type="sporty_car_s" depart="30125" from="R0.E" to="R0.S" departSpeed="random" maxDepartSpeed="31" route="left_to_right" departLane="best">
		<param key="has.friction.device" value="true"/>
	</vehicle>
	<vehicle id="94" type="trailer_s" depart="30143" from="R0.E" to="R0.S" departSpeed="random" maxDepartSpeed="22" route="left_to_right" departLane="best">
		<param key="has.friction.device" value="true"/>
	</vehicle>
	<vehicle id="95" type="normal_car_s" depart="30149" from="R0.E" to="R0.S" departSpeed="random" maxDepartSpeed="25" route="left_to_right" departLane="best">
		<param key="has.friction.device" value="true"/>
	</vehicle>
	<vehicle id="96" type="normal_car_s" depart="30164" from="R0.E" to="R0.S" departSpeed="random" maxDepartSpeed="26" route="left_to_right" departLane="best">
		<param key="has.friction.device" value="true"/>
	</vehicle>
	<vehicle id="97" type="sporty_car_s" depart="30167" from="R0.E" to="R0.S" departSpeed="random" maxDepartSpeed="30" route="left_to_right" departLane="best">
		<param key="has.friction.device" value="true"/>
	</vehicle>
	<vehicle id="98" type="coach_s" depart="30184" from="R0.E" to="R0.S" departSpeed="random" maxDepartSpeed="20" route="left_to_right" departLane="best">
		<param key="has.friction.device" value="true"/>
	</vehicle>
	<vehicle id="99" type="normal_car_s" depart="30185" from="R0.E" to="R0.S" departSpeed="random" maxDepartSpeed="25" route="left_to_right" departLane="best">
		<param key="has.friction.device" value="true"/>
	</vehicle>
	<vehicle id="100" type="sporty_car_s" depart="30214" from="R0.E" to="R0.S" departSpeed="random" maxDepartSpeed="29" route="left_to_right" departLane="best">
		<param key="has.friction.device" value="true"/>
	</vehicle>
	<vehicle id="101" type="coach_s" depart="30234" from="R0.E" to="R0.S" departSpeed="random" maxDepartSpeed="23" route="left_to_right" departLane="best">
		<param key="has.friction.device" value="true"/>
	</vehicle>
	<vehicle id="102" type="trailer_s" depart="30253" from="R0.E" to="R0.S" departSpeed="random" maxDepartSpeed="23" route="left_to_right" departLane="best">
		<param key="has.friction.device" value="true"/>
	</vehicle>
	<vehicle id="103" type="coach_s" depart="30268" from="R0.E" to="R0.S" departSpeed="random" maxDepartSpeed="23" route="left_to_right" departLane="best">
		<param key="has.friction.device" value="true"/>
	</vehicle>
	<vehicle id="104" type="coach_s" depart="30293" from="R0.E" to="R0.S" departSpeed="random" maxDepartSpeed="23" route="left_to_right" departLane="best">
		<param key="has.friction.device" value="true"/>
	</vehicle>
	<vehicle id="105" type="coach_s" depart="30315" from="R0.E" to="R0.S" departSpeed="random" maxDepartSpeed="23" route="left_to_right" departLane="best">
		<param key="has.friction.device" value="true"/>
	</vehicle>
	<vehicle id="106" type="normal_car_s" depart="30340" from="R0.E" to="R0.S" departSpeed="random" maxDepartSpeed="25" route="left_to_right" departLane="best">
		<param key="has.friction.device" value="true"/>
	</vehicle>
	<vehicle id="107" type="coach_s" depart="30341" from="R0.E" to="R0.S" departSpeed="random" maxDepartSpeed="23" route="left_to_right" departLane="best">
		<param key="has.friction.device" value="true"/>
	</vehicle>
	<vehicle id="108" type="trailer_s" depart="30364" from="R0.E" to="R0.S" departSpeed="random" maxDepartSpeed="21" route="left_to_right" departLane="best">
		<param key="has.friction.device" value="true"/>
	</vehicle>
	<vehicle id="109" type="coach_s" depart="30376" from="R0.E" to="R0.S" departSpeed="random" maxDepartSpeed="23" route="left_to_right" departLane="best">
		<param key="has.friction.device" value="true"/>
	</vehicle>
	<vehicle id="110" type="trailer_s" depart="30385" from="R0.E" to="R0.S" departSpeed="random" maxDepartSpeed="24" route="left_to_right" departLane="best">
		<param key="has.friction.device" value="true"/>
	</vehicle>
	<vehicle id="111" type="trailer_s" depart="30413" from="R0.E" to="R0.S" departSpeed="random" maxDepartSpeed="21" route="left_to_right" departLane="best">
		<param key="has.friction.device" value="true"/>
	</vehicle>
	<vehicle id="112" type="trailer_s" depart="30439" from="R0.E" to="R0.S" departSpeed="random" maxDepartSpeed="21" route="left_to_right" departLane="best">
		<param key="has.friction.device" value="true"/>
	</vehicle>
	<vehicle id="113" type="trailer_s" depart="30440" from="R0.E" to="R0.S" departSpeed="random" maxDepartSpeed="22" route="left_to_right" departLane="best">
		<param key="has.friction.device" value="true"/>
	</vehicle>
	<vehicle id="114" type="normal_car_s" depart="30457" from="R0.E" to="R0.S" departSpeed="random" maxDepartSpeed="25" route="left_to_right" departLane="best">
		<param key="has.friction.device" value="true"/>
	</vehicle>
	<vehicle id="115" type="trailer_s" depart="30472" from="R0.E" to="R0.S" departSpeed="random" maxDepartSpeed="22" route="left_to_right" departLane="best">
		<param key="has.friction.device" value="true"/>
	</vehicle>
	<vehicle id="116" type="coach_s" depart="30484" from="R0.E" to="R0.S" departSpeed="random" maxDepartSpeed="23" route="left_to_right" departLane="best">
		<param key="has.friction.device" value="true"/>
	</vehicle>
	<vehicle id="117" type="coach_s" depart="30491" from="R0.E" to="R0.S" departSpeed="random" maxDepartSpeed="21" route="left_to_right" departLane="best">
		<param key="has.friction.device" value="true"/>
	</vehicle>
	<vehicle id="118" type="sporty_car_s" depart="30508" from="R0.E" to="R0.S" departSpeed="random" maxDepartSpeed="28" route="left_to_right" departLane="best">
		<param key="has.friction.device" value="true"/>
	</vehicle>
	<vehicle id="119" type="sporty_car_s" depart="30514" from="R0.E" to="R0.S" departSpeed="random" maxDepartSpeed="28" route="left_to_right" departLane="best">
		<param key="has.friction.device" value="true"/>
	</vehicle>
	<vehicle id="120" type="coach_s" depart="30515" from="R0.E" to="R0.S" departSpeed="random" maxDepartSpeed="24" route="left_to_right" departLane="best">
		<param key="has.friction.device" value="true"/>
	</vehicle>
	<vehicle id="121" type="trailer_s" depart="30537" from="R0.E" to="R0.S" departSpeed="random" maxDepartSpeed="22" route="left_to_right" departLane="best">
		<param key="has.friction.device" value="true"/>
	</vehicle>
	<vehicle id="122" type="normal_car_s" depart="30545" from="R0.E" to="R0.S" departSpeed="random" maxDepartSpeed="25" route="left_to_right" departLane="best">
		<param key="has.friction.device" value="true"/>
	</vehicle>
	<vehicle id="123" type="trailer_s" depart="30572" from="R0.E" to="R0.S" departSpeed="random" maxDepartSpeed="21" route="left_to_right" departLane="best">
		<param key="has.friction.device" value="true"/>
	</vehicle>
	<vehicle id="124" type="trailer_s" depart="30581" from="R0.E" to="R0.S" departSpeed="random" maxDepartSpeed="23" route="left_to_right" departLane="best">
		<param key="has.friction.device" value="true"/>
	</vehicle>
	<vehicle id="125" type="sporty_car_s" depart="30583" from="R0.E" to="R0.S" departSpeed="random" maxDepartSpeed="30" route="left_to_right" departLane="best">
		<param key="has.friction.device" value="true"/>
	</vehicle>
	<vehicle id="126" type="trailer_s" depart="30601" from="R0.E" to="R0.S" departSpeed="random" maxDepartSpeed="24" route="left_to_right" departLane="best">
		<param key="has.friction.device" value="true"/>
	</vehicle>
	<vehicle id="127" type="normal_car_s" depart="30626" from="R0.E" to="R0.S" departSpeed="random" maxDepartSpeed="26" route="left_to_right" departLane="best">
		<param key="has.friction.device" value="true"/>
	</vehicle>
	<vehicle id="128" type="coach_s" depart="30650" from="R0.E" to="R0.S" departSpeed="random" maxDepartSpeed="23" route="left_to_right" departLane="best">
		<param key="has.friction.device" value="true"/>
	</vehicle>
	<vehicle id="129" type="normal_car_s" depart="30669" from="R0.E" to="R0.S" departSpeed="random" maxDepartSpeed="26" route="left_to_right" departLane="best">
		<param key="has.friction.device" value="true"/>
	</vehicle>
	<vehicle id="130" type="trailer_s" depart="30684" from="R0.E" to="R0.S" departSpeed="random" maxDepartSpeed="20" route="left_to_right" departLane="best">
		<param key="has.friction.device" value="true"/>
	</vehicle>
	<vehicle id="131" type="coach_s" depart="30704" from="R0.E" to="R0.S" departSpeed="random" maxDepartSpeed="20" route="left_to_right" departLane="best">
		<param key="has.friction.device" value="true"/>
	</vehicle>
	<vehicle id="132" type="sporty_car_s" depart="30732" from="R0.E" to="R0.S" departSpeed="random" maxDepartSpeed="31" route="left_to_right" departLane="best">
		<param key="has.friction.device" value="true"/>
	</vehicle>
	<vehicle id="133" type="normal_car_s" depart="30747" from="R0.E" to="R0.S" departSpeed="random" maxDepartSpeed="27" route="left_to_right" departLane="best">
		<param key="has.friction.device" value="true"/>
	</vehicle>
	<vehicle id="134" type="trailer_s" depart="30754" from="R0.E" to="R0.S" departSpeed="random" maxDepartSpeed="21" route="left_to_right" departLane="best">
		<param key="has.friction.device" value="true"/>
	</vehicle>