<routes>
	<vType accel="1.0" decel="4.5" id="normal_car_s" length="5.0" minGap="2.5" maxSpeed="42" sigma="0.5" desiredMaxSpeed="36"/>
	<vType accel="1.5" decel="4.0" id="sporty_car_s" length="5.0" minGap="2.5" maxSpeed="67" sigma="0.6" desiredMaxSpeed="42"/>
	<vType accel="1.0" decel="4.5" id="trailer_s" length="10.0" minGap="2.5" maxSpeed="30" sigma="0.5" desiredMaxSpeed="30"/>
	<vType accel="1.0" decel="4.5" id="coach_s" length="15.0" minGap="2.5" maxSpeed="25" sigma="0.3" desiredMaxSpeed="25" />

    <route id="left_to_right" edges="LRE LRL LRS"/>
                  
	<vehicle id="0" type="coach_s" depart="28810" from="R0.E" to="R0.S" departSpeed="random" maxDepartSpeed="23" route="left_to_right" departLane="best">
		<param key="has.friction.device" value="true"/>
	</vehicle>
	<vehicle id="1" type="normal_car_s" depart="28810" from="R0.E" to="R0.S" departSpeed="random" maxDepartSpeed="25" route="left_to_right" departLane="best">
		<param key="has.friction.device" value="true"/>
	</vehicle>
	<vehicle id="2" type="coach_s" depart="28817" from="R0.E" to="R0.S" departSpeed="random" maxDepartSpeed="23" route="left_to_right" departLane="best">
		<param key="has.friction.device" value="true"/>
	</vehicle>
	<vehicle id="3" type="sporty_car_s" depart="28828" from="R0.E" to="R0.S" departSpeed="random" maxDepartSpeed="29" route="left_to_right" departLane="best">
		<param key="has.friction.device" value="true"/>
	</vehicle>
	<vehicle id="4" type="sporty_car_s" depart="28842" from="R0.E" to="R0.S" departSpeed="random" maxDepartSpeed="29" route="left_to_right" departLane="best">
		<param key="has.friction.device" value="true"/>
	</vehicle>
	<vehicle id="5" type="sporty_car_s" depart="28857" from="R0.E" to="R0.S" departSpeed="random" maxDepartSpeed="30" route="left_to_right" departLane="best">
		<param key="has.friction.device" value="true"/>
	</vehicle>
	<vehicle id="6" type="trailer_s" depart="28866" from="R0.E" to="R0.S" departSpeed="random" maxDepartSpeed="24" route="left_to_right" departLane="best">
		<param key="has.friction.device" value="true"/>
	</vehicle>
	<vehicle id="7" type="normal_car_s" depart="28867" from="R0.E" to="R0.S" departSpeed="random" maxDepartSpeed="27" route="left_to_right" departLane="best">
		<param key="has.friction.device" value="true"/>
	</vehicle>
	<vehicle id="8" type="coach_s" depart="28880" from="R0.E" to="R0.S" departSpeed="random" maxDepartSpeed="22" route="left_to_right" departLane="best">
		<param key="has.friction.device" value="true"/>
	</vehicle>
	<vehicle id="9" type="coach_s" depart="28888" from="R0.E" to="R0.S" departSpeed="random" maxDepartSpeed="22" route="left_to_right" departLane="best">
		<param key="has.friction.device" value="true"/>
	</vehicle>
	<vehicle id="10" type="sporty_car_s" depart="28900" from="R0.E" to="R0.S" departSpeed="random" maxDepartSpeed="28" route="left_to_right" departLane="best">
		<param key="has.friction.device" value="true"/>
	</vehicle>
	<vehicle id="11" type="normal_car_s" depart="28915" from="R0.E" to="R0.S" departSpeed="random" maxDepartSpeed="27" route="left_to_right" departLane="best">
		<param key="has.friction.device" value="true"/>
	</vehicle>
	<vehicle id="12" type="sporty_car_s" depart="28915" from="R0.E" to="R0.S" departSpeed="random" maxDepartSpeed="29" route="left_to_right" departLane="best">
		<param key="has.friction.device" value="true"/>
	</vehicle>
	<vehicle id="13" type="trailer_s" depart="28928" from="R0.E" to="R0.S" departSpeed="random" maxDepartSpeed="21" route="left_to_right" departLane="best">
		<param key="has.friction.device" value="true"/>
	</vehicle>
	<vehicle id="14" type="coach_s" depart="28944" from="R0.E" to="R0.S" departSpeed="random" maxDepartSpeed="23" route="left_to_right" departLane="best">
		<param key="has.friction.device" value="true"/>
	</vehicle>
	<vehicle id="15" type="sporty_car_s" depart="28950" from="R0.E" to="R0.S" departSpeed="random" maxDepartSpeed="30" route="left_to_right" departLane="best">
		<param key="has.friction.device" value="true"/>
	</vehicle>
	<vehicle id="16" type="sporty_car_s" depart="28955" from="R0.E" to="R0.S" departSpeed="random" maxDepartSpeed="28" route="left_to_right" departLane="best">
		<param key="has.friction.device" value="true"/>
	</vehicle>
	<vehicle id="17" type="trailer_s" depart="28970" from="R0.E" to="R0.S" departSpeed="random" maxDepartSpeed="22" route="left_to_right" departLane="best">
		<param key="has.friction.device" value="true"/>
	</vehicle>
	<vehicle id="18" type="coach_s" depart="28976" from="R0.E" to="R0.S" departSpeed="random" maxDepartSpeed="22" route="left_to_right" departLane="best">
		<param key="has.friction.device" value="true"/>
	</vehicle>
	<vehicle id="19" type="trailer_s" depart="28978" from="R0.E" to="R0.S" departSpeed="random" maxDepartSpeed="23" route="left_to_right" departLane="best">
		<param key="has.friction.device" value="true"/>
	</vehicle>
	<vehicle id="20" type="normal_car_s" depart="28989" from="R0.E" to="R0.S" departSpeed="random" maxDepartSpeed="26" route="left_to_right" departLane="best">
		<param key="has.friction.device" value="true"/>
	</vehicle>
	<vehicle id="21" type="sporty_car_s" depart="28995" from="R0.E" to="R0.S" departSpeed="random" maxDepartSpeed="30" route="left_to_right" departLane="best">
		<param key="has.friction.device" value="true"/>
	</vehicle>
	<vehicle id="22" type="trailer_s" depart="29014" from="R0.E" to="R0.S" departSpeed="random" maxDepartSpeed="21" route="left_to_right" departLane="best">
		<param key="has.friction.device" value="true"/>
	</vehicle>
	<vehicle id="23" type="sporty_car_s" depart="29033" from="R0.E" to="R0.S" departSpeed="random" maxDepartSpeed="30" route="left_to_right" departLane="best">
		<param key="has.friction.device" value="true"/>
	</vehicle>
	<vehicle id="24" type="normal_car_s" depart="29039" from="R0.E" to="R0.S" departSpeed="random" maxDepartSpeed="27" route="left_to_right" departLane="best">
		<param key="has.friction.device" value="true"/>
	</vehicle>
	<vehicle id="25" type="trailer_s" depart="29047" from="R0.E" to="R0.S" departSpeed="random" maxDepartSpeed="21" route="left_to_right" departLane="best">
		<param key="has.friction.device" value="true"/>
	</vehicle>
	<vehicle id="26" type="coach_s" depart="29058" from="R0.E" to="R0.S" departSpeed="random" maxDepartSpeed="22" route="left_to_right" departLane="best">
		<param key="has.friction.device" value="true"/>
	</vehicle>
	<vehicle id="27" type="coach_s" depart="29061" from="R0.E" to="R0.S" departSpeed="random" maxDepartSpeed="23" route="left_to_right" departLane="best">
		<param key="has.friction.device" value="true"/>
	</vehicle>
	<vehicle id="28" type="normal_car_s" depart="29077" from="R0.E" to="R0.S" departSpeed="random" maxDepartSpeed="26" route="left_to_right" departLane="best">
		<param key="has.friction.device" value="true"/>
	</vehicle>
	<vehicle id="29" type="sporty_car_s" depart="29078" from="R0.E" to="R0.S" departSpeed="random" maxDepartSpeed="29" route="left_to_right" departLane="best">
		<param key="has.friction.device" value="true"/>
	</vehicle>
	<vehicle id="30" type="sporty_car_s" depart="29092" from="R0.E" to="R0.S" departSpeed="random" maxDepartSpeed="29" route="left_to_right" departLane="best">
		<param key="has.friction.device" value="true"/>
	</vehicle>
	<vehicle id="31" type="sporty_car_s" depart="29111" from="R0.E" to="R0.S" departSpeed="random" maxDepartSpeed="28" route="left_to_right" departLane="best">
		<param key="has.friction.device" value="true"/>
	</vehicle>
	<vehicle id="32" type="sporty_car_s" depart="29114" from="R0.E" to="R0.S" departSpeed="random" maxDepartSpeed="28" route="left_to_right" departLane="best">
		<param key="has.friction.device" value="true"/>
	</vehicle>
	<vehicle id="33" type="normal_car_s" depart="29125" from="R0.E" to="R0.S" departSpeed="random" maxDepartSpeed="27" route="left_to_right" departLane="best">
		<param key="has.friction.device" value="true"/>
	</vehicle>
	<vehicle id="34" type="coach_s" depart="29126" from="R0.E" to="R0.S" departSpeed="random" maxDepartSpeed="20" route="left_to_right" departLane="best">
		<param key="has.friction.device" value="true"/>
	</vehicle>
	<vehicle id="35" type="normal_car_s" depart="29139" from="R0.E" to="R0.S" departSpeed="random" maxDepartSpeed="25" route="left_to_right" departLane="best">
		<param key="has.friction.device" value="true"/>
	</vehicle>
	<vehicle id="36" type="coach_s" depart="29153" from="R0.E" to="R0.S" departSpeed="random" maxDepartSpeed="24" route="left_to_right" departLane="best">
		<param key="has.friction.device" value="true"/>
	</vehicle>
	<vehicle id="37" type="normal_car_s" depart="29162" from="R0.E" to="R0.S" departSpeed="random" maxDepartSpeed="25" route="left_to_right" departLane="best">
		<param key="has.friction.device" value="true"/>
	</vehicle>
	<vehicle id="38" type="coach_s" depart="29165" from="R0.E" to="R0.S" departSpeed="random" maxDepartSpeed="21" route="left_to_right" departLane="best">
		<param key="has.friction.device" value="true"/>
	</vehicle>
	<vehicle id="39" type="sporty_car_s" depart="29172" from="R0.E" to="R0.S" departSpeed="random" maxDepartSpeed="28" route="left_to_right" departLane="best">
		<param key="has.friction.device" value="true"/>
	</vehicle>
	<vehicle id="40" type="coach_s" depart="29189" from="R0.E" to="R0.S" departSpeed="random" maxDepartSpeed="21" route="left_to_right" departLane="best">
		<param key="has.friction.device" value="true"/>
	</vehicle>
	<vehicle id="41" type="sporty_car_s" depart="29202" from="R0.E" to="R0.S" departSpeed="random" maxDepartSpeed="28" route="left_to_right" departLane="best">
		<param key="has.friction.device" value="true"/>
	</vehicle>
	<vehicle id="42" type="normal_car_s" depart="29218" from="R0.E" to="R0.S" departSpeed="random" maxDepartSpeed="26" route="left_to_right" departLane="best">
		<param key="has.friction.device" value="true"/>
	</vehicle>
	<vehicle id="43" type="trailer_s" depart="29236" from="R0.E" to="R0.S" departSpeed="random" maxDepartSpeed="21" route="left_to_right" departLane="best">
		<param key="has.friction.device" value="true"/>
	</vehicle>
	<vehicle id="44" type="sporty_car_s" depart="29239" from="R0.E" to="R0.S" departSpeed="random" maxDepartSpeed="31" route="left_to_right" departLane="best">
		<param key="has.friction.device" value="true"/>
	</vehicle>
	<vehicle id="45" type="coach_s" depart="29252" from="R0.E" to="R0.S" departSpeed="random" maxDepartSpeed="21" route="left_to_right" departLane="best">
		<param key="has.friction.device" value="true"/>
	</vehicle>
	<vehicle id="46" type="trailer_s" depart="29259" from="R0.E" to="R0.S" departSpeed="random" maxDepartSpeed="21" route="left_to_right" departLane="best">
		<param key="has.friction.device" value="true"/>
	</vehicle>
	<vehicle id="47" type="normal_car_s" depart="29261" from="R0.E" to="R0.S" departSpeed="random" maxDepartSpeed="25" route="left_to_right" departLane="best">
		<param key="has.friction.device" value="true"/>
	</vehicle>
	<vehicle id="48" type="coach_s" depart="29270" from="R0.E" to="R0.S" departSpeed="random" maxDepartSpeed="22" route="left_to_right" departLane="best">
		<param key="has.friction.device" value="true"/>
	</vehicle>
	<vehicle id="49" type="trailer_s" depart="29273" from="R0.E" to="R0.S" departSpeed="random" maxDepartSpeed="20" route="left_to_right" departLane="best">
		<param key="has.friction.device" value="true"/>
	</vehicle>
	<vehicle id="50" type="normal_car_s" depart="29281" from="R0.E" to="R0.S" departSpeed="random" maxDepartSpeed="25" route="left_to_right" departLane="best">
		<param key="has.friction.device" value="true"/>
	</vehicle>
	<vehicle id="51" type="normal_car_s" depart="29282" from="R0.E" to="R0.S" departSpeed="random" maxDepartSpeed="27" route="left_to_right" departLane="best">
		<param key="has.friction.device" value="true"/>
	</vehicle>
	<vehicle id="52" type="coach_s" depart="29284" from="R0.E" to="R0.S" departSpeed="random" maxDepartSpeed="24" route="left_to_right" departLane="best">
		<param key="has.friction.device" value="true"/>
	</vehicle>
	<vehicle id="53" type="normal_car_s" depart="29303" from="R0.E" to="R0.S" departSpeed="random" maxDepartSpeed="25" route="left_to_right" departLane="best">
		<param key="has.friction.device" value="true"/>
	</vehicle>
	<vehicle id="54" type="normal_car_s" depart="29319" from="R0.E" to="R0.S" departSpeed="random" maxDepartSpeed="25" route="left_to_right" departLane="best">
		<param key="has.friction.device" value="true"/>
	</vehicle>
	<vehicle id="55" type="normal_car_s" depart="29333" from="R0.E" to="R0.S" departSpeed="random" maxDepartSpeed="27" route="left_to_right" departLane="best">
		<param key="has.friction.device" value="true"/>
	</vehicle>
	<vehicle id="56" type="normal_car_s" depart="29340" from="R0.E" to="R0.S" departSpeed="random" maxDepartSpeed="26" route="left_to_right" departLane="best">
		<param key="has.friction.device" value="true"/>
	</vehicle>
	<vehicle id="57" type="normal_car_s" depart="29358" from="R0.E" to="R0.S" departSpeed="random" maxDepartSpeed="25" route="left_to_right" departLane="best">
		<param key="has.friction.device" value="true"/>
	</vehicle>
	<vehicle id="58" type="coach_s" depart="29375" from="R0.E" to="R0.S" departSpeed="random" maxDepartSpeed="20" route="left_to_right" departLane="best">
		<param key="has.friction.device" value="true"/>
	</vehicle>
	<vehicle id="59" type="sporty_car_s" depart="29388" from="R0.E" to="R0.S" departSpeed="random" maxDepartSpeed="28" route="left_to_right" departLane="best">
		<param key="has.friction.device" value="true"/>
	</vehicle>
	<vehicle id="60" type="coach_s" depart="29396" from="R0.E" to="R0.S" departSpeed="random" maxDepartSpeed="23" route="left_to_right" departLane="best">
		<param key="has.friction.device" value="true"/>
	</vehicle>
	<vehicle id="61" type="normal_car_s" depart="29411" from="R0.E" to="R0.S" departSpeed="random" maxDepartSpeed="26" route="left_to_right" departLane="best">
		<param key="has.friction.device" value="true"/>
	</vehicle>
	<vehicle id="62" type="trailer_s" depart="29426" from="R0.E" to="R0.S" departSpeed="random" maxDepartSpeed="25" route="left_to_right" departLane="best">
		<param key="has.friction.device" value="true"/>
	</vehicle>
	<vehicle id="63" type="trailer_s" depart="29436" from="R0.E" to="R0.S" departSpeed="random" maxDepartSpeed="23" route="left_to_right" departLane="best">
		<param key="has.friction.device" value="true"/>
	</vehicle>
	<vehicle id="64" type="sporty_car_s" depart="29439" from="R0.E" to="R0.S" departSpeed="random" maxDepartSpeed="31" route="left_to_right" departLane="best">
		<param key="has.friction.device" value="true"/>
	</vehicle>
	<vehicle id="65" type="coach_s" depart="29455" from="R0.E" to="R0.S" departSpeed="random" maxDepartSpeed="22" route="left_to_right" departLane="best">
		<param key="has.friction.device" value="true"/>
	</vehicle>
	<vehicle id="66" type="sporty_car_s" depart="29467" from="R0.E" to="R0.S" departSpeed="random" maxDepartSpeed="31" route="left_to_right" departLane="best">
		<param key="has.friction.device" value="true"/>
	</vehicle>
	<vehicle id="67" type="trailer_s" depart="29469" from="R0.E" to="R0.S" departSpeed="random" maxDepartSpeed="24" route="left_to_right" departLane="best">
		<param key="has.friction.device" value="true"/>
	</vehicle>
	<vehicle id="68" type="trailer_s" depart="29482" from="R0.E" to="R0.S" departSpeed="random" maxDepartSpeed="24" route="left_to_right" departLane="best">
		<param key="has.friction.device" value="true"/>
	</vehicle>
	<vehicle id="69" type="trailer_s" depart="29491" from="R0.E" to="R0.S" departSpeed="random" maxDepartSpeed="22" route="left_to_right" departLane="best">
		<param key="has.friction.device" value="true"/>
	</vehicle>
	<vehicle id="70" type="sporty_car_s" depart="29508" from="R0.E" to="R0.S" departSpeed="random" maxDepartSpeed="29" route="left_to_right" departLane="best">
		<param key="has.friction.device" value="true"/>
	</vehicle>
	<vehicle id="71" type="coach_s" depart="29518" from="R0.E" to="R0.S" departSpeed="random" maxDepartSpeed="20" route="left_to_right" departLane="best">
		<param key="has.friction.device" value="true"/>
	</vehicle>
	<vehicle id="72" type="sporty_car_s" depart="29520" from="R0.E" to="R0.S" departSpeed="random" maxDepartSpeed="30" route="left_to_right" departLane="best">
		<param key="has.friction.device" value="true"/>
	</vehicle>
	<vehicle id="73" type="trailer_s" depart="29530" from="R0.E" to="R0.S" departSpeed="random" maxDepartSpeed="24" route="left_to_right" departLane="best">
		<param key="has.friction.device" value="true"/>
	</vehicle>
	<vehicle id="74" type="sporty_car_s" depart="29542" from="R0.E" to="R0.S" departSpeed="random" maxDepartSpeed="28" route="left_to_right" departLane="best">
		<param key="has.friction.device" value="true"/>
	</vehicle>
	<vehicle id="75" type="trailer_s" depart="29549" from="R0.E" to="R0.S" departSpeed="random" maxDepartSpeed="24" route="left_to_right" departLane="best">
		<param key="has.friction.device" value="true"/>
	</vehicle>
	<vehicle id="76" type="normal_car_s" depart="29549" from="R0.E" to="R0.S" departSpeed="random" maxDepartSpeed="27" route="left_to_right" departLane="best">
		<param key="has.friction.device" value="true"/>
	</vehicle>
	<vehicle id="77" type="sporty_car_s" depart="29565" from="R0.E" to="R0.S" departSpeed="random" maxDepartSpeed="30" route="left_to_right" departLane="best">
		<param key="has.friction.device" value="true"/>
	</vehicle>
	<vehicle id="78" type="sporty_car_s" depart="29580" from="R0.E" to="R0.S" departSpeed="random" maxDepartSpeed="31" route="left_to_right" departLane="best">
		<param key="has.friction.device" value="true"/>
	</vehicle>
	<vehicle id="79" type="sporty_car_s" depart="29597" from="R0.E" to="R0.S" departSpeed="random" maxDepartSpeed="28" route="left_to_right" departLane="best">
		<param key="has.friction.device" value="true"/>
	</vehicle>
	<vehicle id="80" type="sporty_car_s" depart="29597" from="R0.E" to="R0.S" departSpeed="random" maxDepartSpeed="28" route="left_to_right" departLane="best">
		<param key="has.friction.device" value="true"/>
	</vehicle>
	<vehicle id="81" type="trailer_s" depart="29600" from="R0.E" to="R0.S" departSpeed="random" maxDepartSpeed="20" route="left_to_right" departLane="best">
		<param key="has.friction.device" value="true"/>
	</vehicle>
	<vehicle id="82" type="normal_car_s" depart="29617" from="R0.E" to="R0.S" departSpeed="random" maxDepartSpeed="25" route="left_to_right" departLane="best">
		<param key="has.friction.device" value="true"/>
	</vehicle>
	<vehicle id="83" type="coach_s" depart="29626" from="R0.E" to="R0.S" departSpeed="random" maxDepartSpeed="22" route="left_to_right" departLane="best">
		<param key="has.friction.device" value="true"/>
	</vehicle>
	<vehicle id="84" type="trailer_s" depart="29627" from="R0.E" to="R0.S" departSpeed="random" maxDepartSpeed="20" route="left_to_right" departLane="best">
		<param key="has.friction.device" value="true"/>
	</vehicle>
	<vehicle id="85" type="coach_s" depart="29635" from="R0.E" to="R0.S" departSpeed="random" maxDepartSpeed="23" route="left_to_right" departLane="best">
		<param key="has.friction.device" value="true"/>
	</vehicle>
	<vehicle id="86" type="normal_car_s" depart="29644" from="R0.E" to="R0.S" departSpeed="random" maxDepartSpeed="27" route="left_to_right" departLane="best">
		<param key="has.friction.device" value="true"/>
	</vehicle>
	<vehicle id="87" type="coach_s" depart="29660" from="R0.E" to="R0.S" departSpeed="random" maxDepartSpeed="22" route="left_to_right" departLane="best">
		<param key="has.friction.device" value="true"/>
	</vehicle>
	<vehicle id="88" type="normal_car_s" depart="29675" from="R0.E" to="R0.S" departSpeed="random" maxDepartSpeed="25" route="left_to_right" departLane="best">
		<param key="has.friction.device" value="true"/>
	</vehicle>
	<vehicle id="89" type="normal_car_s" depart="29684" from="R0.E" to="R0.S" departSpeed="random" maxDepartSpeed="27" route="left_to_right" departLane="best">
		<param key="has.friction.device" value="true"/>
	</vehicle>
	<vehicle id="90" type="trailer_s" depart="29702" from="R0.E" to="R0.S" departSpeed="random" maxDepartSpeed="22" route="left_to_right" departLane="best">
		<param key="has.friction.device" value="true"/>
	</vehicle>
	<vehicle id="91" type="sporty_car_s" depart="29707" from="R0.E" to="R0.S" departSpeed="random" maxDepartSpeed="29" route="left_to_right" departLane="best">
		<param key="has.friction.device" value="true"/>
	</vehicle>
	<vehicle id="92" type="sporty_car_s" depart="29711" from="R0.E" to="R0.S" departSpeed="random" maxDepartSpeed="31" route="left_to_right" departLane="best">
		<param key="has.friction.device" value="true"/>
	</vehicle>
	<vehicle id="93" type="sporty_car_s" depart="29717" from="R0.E" to="R0.S" departSpeed="random" maxDepartSpeed="28" route="left_to_right" departLane="best">
		<param key="has.friction.device" value="true"/>
	</vehicle>
	<vehicle id="94" type="coach_s" depart="29729" from="R0.E" to="R0.S" departSpeed="random" maxDepartSpeed="20" route="left_to_right" departLane="best">
		<param key="has.friction.device" value="true"/>
	</vehicle>
	<vehicle id="95" type="coach_s" depart="29743" from="R0.E" to="R0.S" departSpeed="random" maxDepartSpeed="22" route="left_to_right" departLane="best">
		<param key="has.friction.device" value="true"/>
	</vehicle>
	<vehicle id="96" type="normal_car_s" depart="29753" from="R0.E" to="R0.S" departSpeed="random" maxDepartSpeed="26" route="left_to_right" departLane="best">
		<param key="has.friction.device" value="true"/>
	</vehicle>
	<vehicle id="97" type="trailer_s" depart="29757" from="R0.E" to="R0.S" departSpeed="random" maxDepartSpeed="22" route="left_to_right" departLane="best">
		<param key="has.friction.device" value="true"/>
	</vehicle>
	<vehicle id="98" type="trailer_s" depart="29772" from="R0.E" to="R0.S" departSpeed="random" maxDepartSpeed="24" route="left_to_right" departLane="best">
		<param key="has.friction.device" value="true"/>
	</vehicle>
	<vehicle id="99" type="trailer_s" depart="29772" from="R0.E" to="R0.S" departSpeed="random" maxDepartSpeed="20" route="left_to_right" departLane="best">
		<param key="has.friction.device" value="true"/>
	</vehicle>
	<vehicle id="100" type="coach_s" depart="29777" from="R0.E" to="R0.S" departSpeed="random" maxDepartSpeed="22" route="left_to_right" departLane="best">
		<param key="has.friction.device" value="true"/>
	</vehicle>
	<vehicle id="101" type="trailer_s" depart="29788" from="R0.E" to="R0.S" departSpeed="random" maxDepartSpeed="20" route="left_to_right" departLane="best">
		<param key="has.friction.device" value="true"/>
	</vehicle>
	<vehicle id="102" type="coach_s" depart="29804" from="R0.E" to="R0.S" departSpeed="random" maxDepartSpeed="22" route="left_to_right" departLane="best">
		<param key="has.friction.device" value="true"/>
	</vehicle>
	<vehicle id="103" type="coach_s" depart="29814" from="R0.E" to="R0.S" departSpeed="random" maxDepartSpeed="21" route="left_to_right" departLane="best">
		<param key="has.friction.device" value="true"/>
	</vehicle>
	<vehicle id="104" type="coach_s" depart="29818" from="R0.E" to="R0.S" departSpeed="random" maxDepartSpeed="24" route="left_to_right" departLane="best">
		<param key="has.friction.device" value="true"/>
	</vehicle>
	<vehicle id="105" type="sporty_car_s" depart="29827" from="R0.E" to="R0.S" departSpeed="random" maxDepartSpeed="30" route="left_to_right" departLane="best">
		<param key="has.friction.device" value="true"/>
	</vehicle>
	<vehicle id="106" type="coach_s" depart="29830" from="R0.E" to="R0.S" departSpeed="random" maxDepartSpeed="23" route="left_to_right" departLane="best">
		<param key="has.friction.device" value="true"/>
	</vehicle>
	<vehicle id="107" type="sporty_car_s" depart="29849" from="R0.E" to="R0.S" departSpeed="random" maxDepartSpeed="31" route="left_to_right" departLane="best">
		<param key="has.friction.device" value="true"/>
	</vehicle>
	<vehicle id="108" type="sporty_car_s" depart="29857" from="R0.E" to="R0.S" departSpeed="random" maxDepartSpeed="31" route="left_to_right" departLane="best">
		<param key="has.friction.device" value="true"/>
	</vehicle>
	<vehicle id="109" type="sporty_car_s" depart="29867" from="R0.E" to="R0.S" departSpeed="random" maxDepartSpeed="28" route="left_to_right" departLane="best">
		<param key="has.friction.device" value="true"/>
	</vehicle>
	<vehicle id="110" type="coach_s" depart="29884" from="R0.E" to="R0.S" departSpeed="random" maxDepartSpeed="22" route="left_to_right" departLane="best">
		<param key="has.friction.device" value="true"/>
	</vehicle>
	<vehicle id="111" type="sporty_car_s" depart="29898" from="R0.E" to="R0.S" departSpeed="random" maxDepartSpeed="30" route="left_to_right" departLane="best">
		<param key="has.friction.device" value="true"/>
	</vehicle>
	<vehicle id="112" type="trailer_s" depart="29898" from="R0.E" to="R0.S" departSpeed="random" maxDepartSpeed="22" route="left_to_right" departLane="best">
		<param key="has.friction.device" value="true"/>
	</vehicle>
	<vehicle id="113" type="trailer_s" depart="29906" from="R0.E" to="R0.S" departSpeed="random" maxDepartSpeed="21" route="left_to_right" departLane="best">
		<param key="has.friction.device" value="true"/>
	</vehicle>
	<vehicle id="114" type="normal_car_s" depart="29909" from="R0.E" to="R0.S" departSpeed="random" maxDepartSpeed="25" route="left_to_right" departLane="best">
		<param key="has.friction.device" value="true"/>
	</vehicle>
	<vehicle id="115" type="coach_s" depart="29923" from="R0.E" to="R0.S" departSpeed="random" maxDepartSpeed="23" route="left_to_right" departLane="best">
		<param key="has.friction.device" value="true"/>
	</vehicle>
	<vehicle id="116" type="sporty_car_s" depart="29925" from="R0.E" to="R0.S" departSpeed="random" maxDepartSpeed="30" route="left_to_right" departLane="best">
		<param key="has.friction.device" value="true"/>
	</vehicle>
	<vehicle id="117" type="trailer_s" depart="29934" from="R0.E" to="R0.S" departSpeed="random" maxDepartSpeed="23" route="left_to_right" departLane="best">
		<param key="has.friction.device" value="true"/>
	</vehicle>
	<vehicle id="118" type="normal_car_s" depart="29944" from="R0.E" to="R0.S" departSpeed="random" maxDepartSpeed="26" route="left_to_right" departLane="best">
		<param key="has.friction.device" value="true"/>
	</vehicle>
	<vehicle id="119" type="sporty_car_s" depart="29962" from="R0.E" to="R0.S" departSpeed="random" maxDepartSpeed="29" route="left_to_right" departLane="best">
		<param key="has.friction.device" value="true"/>
	</vehicle>
	<vehicle id="120" type="sporty_car_s" depart="29971" from="R0.E" to="R0.S" departSpeed="random" maxDepartSpeed="28" route="left_to_right" departLane="best">
		<param key="has.friction.device" value="true"/>
	</vehicle>
	<vehicle id="121" type="trailer_s" depart="29988" from="R0.E" to="R0.S" departSpeed="random" maxDepartSpeed="20" route="left_to_right" departLane="best">
		<param key="has.friction.device" value="true"/>
	</vehicle>
	<vehicle id="122" type="trailer_s" depart="30003" from="R0.E" to="R0.S" departSpeed="random" maxDepartSpeed="21" route="left_to_right" departLane="best">
		<param key="has.friction.device" value="true"/>
	</vehicle>
	<vehicle id="123" type="coach_s" depart="30003" from="R0.E" to="R0.S" departSpeed="random" maxDepartSpeed="20" route="left_to_right" departLane="best">
		<param key="has.friction.device" value="true"/>
	</vehicle>
	<vehicle id="124" type="coach_s" depart="30016" from="R0.E" to="R0.S" departSpeed="random" maxDepartSpeed="23" route="left_to_right" departLane="best">
		<param key="has.friction.device" value="true"/>
	</vehicle>
	<vehicle id="125" type="trailer_s" depart="30032" from="R0.E" to="R0.S" departSpeed="random" maxDepartSpeed="23" route="left_to_right" departLane="best">
		<param key="has.friction.device" value="true"/>
	</vehicle>
	<vehicle id="126" type="coach_s" depart="30047" from="R0.E" to="R0.S" departSpeed="random" maxDepartSpeed="24" route="left_to_right" departLane="best">
		<param key="has.friction.device" value="true"/>
	</vehicle>
	<vehicle id="127" type="sporty_car_s" depart="30059" from="R0.E" to="R0.S" departSpeed="random" maxDepartSpeed="30" route="left_to_right" departLane="best">
		<param key="has.friction.device" value="true"/>
	</vehicle>
	<vehicle id="128" type="normal_car_s" depart="30066" from="R0.E" to="R0.S" departSpeed="random" maxDepartSpeed="25" route="left_to_right" departLane="best">
		<param key="has.friction.device" value="true"/>
	</vehicle>
	<vehicle id="129" type="normal_car_s" depart="30082" from="R0.E" to="R0.S" departSpeed="random" maxDepartSpeed="25" route="left_to_right" departLane="best">
		<param key="has.friction.device" value="true"/>
	</vehicle>
	<vehicle id="130" type="coach_s" depart="30089" from="R0.E" to="R0.S" departSpeed="random" maxDepartSpeed="24" route="left_to_right" departLane="best">
		<param key="has.friction.device" value="true"/>
	</vehicle>
	<vehicle id="131" type="sporty_car_s" depart="30096" from="R0.E" to="R0.S" departSpeed="random" maxDepartSpeed="31" route="left_to_right" departLane="best">
		<param key="has.friction.device" value="true"/>
	</vehicle>
	<vehicle id="132" type="coach_s" depart="30112" from="R0.E" to="R0.S" departSpeed="random" maxDepartSpeed="22" route="left_to_right" departLane="best">
		<param key="has.friction.device" value="true"/>
	</vehicle>
	<vehicle id="133" type="trailer_s" depart="30113" from="R0.E" to="R0.S" departSpeed="random" maxDepartSpeed="22" route="left_to_right" departLane="best">
		<param key="has.friction.device" value="true"/>
	</vehicle>
	<vehicle id="134" type="normal_car_s" depart="30122" from="R0.E" to="R0.S" departSpeed="random" maxDepartSpeed="27" route="left_to_right" departLane="best">
		<param key="has.friction.device" value="true"/>
	</vehicle>